336
Lattice="   12.4880821    0.00000000    0.00000000    0.00000000    21.6299926    0.00000000    0.00000000    0.00000000    44.4624159"
Nb   8.16837260741   11.9810707174   15.3283309269
Nb   7.20775091146   15.3087618867   15.3283309269
Nb   6.24712921551   18.6364530559   15.3283309269
Nb   7.68806175874   2.82992000211   15.3283309269
Nb   6.72744006279   6.15761117133   15.3283309269
Nb   5.76681836685   9.48530234054   15.3283309269
Nb   4.80619667090   12.8129935098   15.3283309269
Nb   3.84557497495   16.1406846790   15.3283309269
Nb   2.88495327900   19.4683758482   15.3283309269
Nb   5.28650751818  0.334151625200   15.3283309269
Nb   4.32588582223   3.66184279442   15.3283309269
Nb   3.36526412628   6.98953396363   15.3283309269
Nb   2.40464243034   10.3172251329   15.3283309269
Nb   1.44402073439   13.6449163021   15.3283309269
Nb  0.483399038439   16.9726074713   15.3283309269
Nb   12.0108593926   20.3002986405   15.3283309269
Nb   1.92433158167   1.16607441750   15.3283309269
Nb  0.963709885721   4.49376558672   15.3283309269
Nb 0.00308818977275   7.82145675594   15.3283309269
Nb   11.5305485439   11.1491479252   15.3283309269
Nb   10.5699268480   14.4768390944   15.3283309269
Nb   9.60930515202   17.8045302636   15.3283309269
Nb   11.0502376953   1.99799720981   15.3283309269
Nb   10.0896159993   5.32568837902   15.3283309269
Nb   9.12899430336   8.65337954824   15.3283309269
Nb   8.64868345607   21.1322214328   15.3283309269
Nb   8.15872660262   11.9793091274   9.18208868332
Nb   7.19810490667   15.3070002967   9.18208868332
Nb   6.23748321072   18.6346914659   9.18208868332
Nb   7.67841575395   2.82815841211   9.18208868332
Nb   6.71779405800   6.15584958132   9.18208868332
Nb   5.75717236206   9.48354075054   9.18208868332
Nb   4.79655066611   12.8112319197   9.18208868332
Nb   3.83592897016   16.1389230890   9.18208868332
Nb   2.87530727421   19.4666142582   9.18208868332
Nb   5.27686151339  0.332390035196   9.18208868332
Nb   4.31623981744   3.66008120441   9.18208868332
Nb   3.35561812149   6.98777237363   9.18208868332
Nb   2.39499642555   10.3154635428   9.18208868332
Nb   1.43437472960   13.6431547121   9.18208868332
Nb  0.473753033649   16.9708458813   9.18208868332
Nb   12.0012133878   20.2985370505   9.18208868332
Nb   1.91468557688   1.16431282750   9.18208868332
Nb  0.954063880932   4.49200399671   9.18208868332
Nb   12.4815242351   7.81969516593   9.18208868332
Nb   11.5209025391   11.1473863352   9.18208868332
Nb   10.5602808432   14.4750775044   9.18208868332
Nb   9.59965914723   17.8027686736   9.18208868332
Nb   11.0405916905   1.99623561980   9.18208868332
Nb   10.0799699945   5.32392678902   9.18208868332
Nb   9.11934829857   8.65161795824   9.18208868332
Nb   8.63903745128   21.1304598428   9.18208868332
Bi   8.10351721654   15.1100172660   35.3209507183
Bi   3.94082319984   15.1100172660   35.3209507183
Bi   12.2662112332   15.1100172660   35.3209507183
Bi   6.02217020796   11.5050184993   35.3209507183
Bi   1.85947619126   11.5050184993   35.3209507183
Bi   10.1848642247   11.5050184993   35.3209507183
Bi   8.10351721608   7.90001973269   35.3209507183
Bi   3.94082319938   7.90001973269   35.3209507183
Bi   12.2662112328   7.90001973269   35.3209507183
Bi   6.02217020750   4.29502096604   35.3209507183
Bi   1.85947619080   4.29502096604   35.3209507183
Bi   10.1848642242   4.29502096604   35.3209507183
Bi   8.10351721562  0.690022199388   35.3209507183
Bi   3.94082319892  0.690022199388   35.3209507183
Bi   12.2662112323  0.690022199388   35.3209507183
Bi   6.02217020842   18.7150160326   35.3209507183
Bi   1.85947619173   18.7150160326   35.3209507183
Bi   10.1848642251   18.7150160326   35.3209507183
Bi   10.1752981556   13.9427550876   31.3343077101
Bi   6.01260413890   13.9427550876   31.3343077101
Bi   1.84991012220   13.9427550876   31.3343077101
Bi   8.09395114701   10.3377563209   31.3343077101
Bi   3.93125713032   10.3377563209   31.3343077101
Bi   12.2566451637   10.3377563209   31.3343077101
Bi   10.1752981551   6.73275755429   31.3343077101
Bi   6.01260413843   6.73275755429   31.3343077101
Bi   1.84991012174   6.73275755429   31.3343077101
Bi   8.09395114655   3.12775878764   31.3343077101
Bi   3.93125712985   3.12775878764   31.3343077101
Bi   12.2566451633   3.12775878764   31.3343077101
Bi   10.1752981561   21.1527526209   31.3343077101
Bi   6.01260413936   21.1527526209   31.3343077101
Bi   1.84991012266   21.1527526209   31.3343077101
Bi   8.09395114747   17.5477538542   31.3343077101
Bi   3.93125713078   17.5477538542   31.3343077101
Bi   12.2566451642   17.5477538542   31.3343077101
Bi   10.2230933177   13.9908369620   25.2928290677
Bi   6.06039930097   13.9908369620   25.2928290677
Bi   1.89770528427   13.9908369620   25.2928290677
Bi   8.14174630909   10.3858381954   25.2928290677
Bi   3.97905229239   10.3858381954   25.2928290677
Bi   12.3044403258   10.3858381954   25.2928290677
Bi   10.2230933172   6.78083942871   25.2928290677
Bi   6.06039930051   6.78083942871   25.2928290677
Bi   1.89770528381   6.78083942871   25.2928290677
Bi   8.14174630862   3.17584066206   25.2928290677
Bi   3.97905229193   3.17584066206   25.2928290677
Bi   12.3044403253   3.17584066206   25.2928290677
Bi   10.2230933181   21.2008344953   25.2928290677
Bi   6.06039930143   21.2008344953   25.2928290677
Bi   1.89770528473   21.2008344953   25.2928290677
Bi   8.14174630955   17.5958357287   25.2928290677
Bi   3.97905229285   17.5958357287   25.2928290677
Bi   12.3044403262   17.5958357287   25.2928290677
Bi   6.04265793463   16.4063131796   21.3211086462
Bi   1.87996391794   16.4063131796   21.3211086462
Bi   10.2053519513   16.4063131796   21.3211086462
Bi   3.96131092605   12.8013144129   21.3211086462
Bi   12.2866989594   12.8013144129   21.3211086462
Bi   8.12400494275   12.8013144129   21.3211086462
Bi   6.04265793417   9.19631564627   21.3211086462
Bi   1.87996391747   9.19631564627   21.3211086462
Bi   10.2053519509   9.19631564627   21.3211086462
Bi   3.96131092559   5.59131687962   21.3211086462
Bi   12.2866989590   5.59131687962   21.3211086462
Bi   8.12400494229   5.59131687962   21.3211086462
Bi   6.04265793371   1.98631811297   21.3211086462
Bi   1.87996391701   1.98631811297   21.3211086462
Bi   10.2053519504   1.98631811297   21.3211086462
Bi   3.96131092651   20.0113119462   21.3211086462
Bi   12.2866989599   20.0113119462   21.3211086462
Bi   8.12400494321   20.0113119462   21.3211086462
Se   9.59944235002   10.5922508807   7.50000000000
Se   8.63882065407   13.9199420499   7.50000000000
Se   7.67819895813   17.2476332191   7.50000000000
Se   9.11913150136   1.44110016536   7.50000000000
Se   8.15850980541   4.76879133458   7.50000000000
Se   7.19788810946   8.09648250380   7.50000000000
Se   6.23726641351   11.4241736730   7.50000000000
Se   5.27664471756   14.7518648422   7.50000000000
Se   4.31602302162   18.0795560114   7.50000000000
Se   6.71757726218   20.5753243884   7.50000000000
Se   5.75695556485   2.27302295767   7.50000000000
Se   4.79633386890   5.60071412688   7.50000000000
Se   3.83571217295   8.92840529610   7.50000000000
Se   2.87509047700   12.2560964653   7.50000000000
Se   1.91446878105   15.5837876345   7.50000000000
Se  0.953847085105   18.9114788038   7.50000000000
Se   3.35540132567   21.4072471807   7.50000000000
Se   2.39477962833   3.10494574997   7.50000000000
Se   1.43415793239   6.43263691919   7.50000000000
Se  0.473536236439   9.76032808840   7.50000000000
Se   12.0009965906   13.0880192576   7.50000000000
Se   11.0403748946   16.4157104268   7.50000000000
Se   12.4813074379  0.609177373060   7.50000000000
Se   11.5206857419   3.93686854228   7.50000000000
Se   10.5600640460   7.26455971149   7.50000000000
Se   10.0797531987   19.7434015960   7.50000000000
Se   10.0895802436   12.5353993505   13.6460282443
Se   9.12895854767   15.8630905197   13.6460282443
Se   8.16833685172   19.1907816889   13.6460282443
Se   9.60926939495   3.38424863515   13.6460282443
Se   8.64864769900   6.71193980436   13.6460282443
Se   7.68802600305   10.0396309736   13.6460282443
Se   6.72740430710   13.3673221428   13.6460282443
Se   5.76678261116   16.6950133120   13.6460282443
Se   4.80616091521   20.0227044812   13.6460282443
Se   7.20771515439  0.888480258235   13.6460282443
Se   6.24709345844   4.21617142745   13.6460282443
Se   5.28647176249   7.54386259667   13.6460282443
Se   4.32585006654   10.8715537659   13.6460282443
Se   3.36522837059   14.1992449351   13.6460282443
Se   2.40460667465   17.5269361043   13.6460282443
Se   1.44398497870   20.8546272735   13.6460282443
Se   3.84553921788   1.72040305054   13.6460282443
Se   2.88491752193   5.04809421975   13.6460282443
Se   1.92429582598   8.37578538897   13.6460282443
Se  0.963674130031   11.7034765582   13.6460282443
Se 0.00305243408304   15.0311677274   13.6460282443
Se   11.5305127882   18.3588588966   13.6460282443
Se  0.483363281365   2.55232584284   13.6460282443
Se   12.0108236355   5.88001701206   13.6460282443
Se   11.0502019396   9.20770818127   13.6460282443
Se   10.5698910909 0.0565574659312   13.6460282443
Se   9.60034801368   10.5928322298   10.8644375631
Se   8.63972631774   13.9205233990   10.8644375631
Se   7.67910462179   17.2482145682   10.8644375631
Se   9.12003716502   1.44168151443   10.8644375631
Se   8.15941546907   4.76937268365   10.8644375631
Se   7.19879377312   8.09706385286   10.8644375631
Se   6.23817207717   11.4247550221   10.8644375631
Se   5.27755038123   14.7524461913   10.8644375631
Se   4.31692868528   18.0801373605   10.8644375631
Se   6.71848292584   20.5759057374   10.8644375631
Se   5.75786122851   2.27360430674   10.8644375631
Se   4.79723953256   5.60129547595   10.8644375631
Se   3.83661783661   8.92898664517   10.8644375631
Se   2.87599614066   12.2566778144   10.8644375631
Se   1.91537444472   15.5843689836   10.8644375631
Se  0.954752748766   18.9120601528   10.8644375631
Se   3.35630698933   21.4078285297   10.8644375631
Se   2.39568529200   3.10552709904   10.8644375631
Se   1.43506359605   6.43321826825   10.8644375631
Se  0.474441900101   9.76090943747   10.8644375631
Se   12.0019022542   13.0886006067   10.8644375631
Se   11.0412805583   16.4162917759   10.8644375631
Se   12.4822131015  0.609758722128   10.8644375631
Se   11.5215914056   3.93744989134   10.8644375631
Se   10.5609697096   7.26514106056   10.8644375631
Se   10.0806588624   19.7439829451   10.8644375631
Se   10.0903608603   12.5361134371   17.0104680300
Se   9.12973916439   15.8638046063   17.0104680300
Se   8.16911746844   19.1914957755   17.0104680300
Se   9.61005001167   3.38496272172   17.0104680300
Se   8.64942831572   6.71265389093   17.0104680300
Se   7.68880661977   10.0403450602   17.0104680300
Se   6.72818492382   13.3680362294   17.0104680300
Se   5.76756322788   16.6957273986   17.0104680300
Se   4.80694153193   20.0234185678   17.0104680300
Se   7.20849577111  0.889194344804   17.0104680300
Se   6.24787407516   4.21688551402   17.0104680300
Se   5.28725237921   7.54457668323   17.0104680300
Se   4.32663068326   10.8722678525   17.0104680300
Se   3.36600898731   14.1999590217   17.0104680300
Se   2.40538729137   17.5276501909   17.0104680300
Se   1.44476559542   20.8553413601   17.0104680300
Se   3.84631983460   1.72111713711   17.0104680300
Se   2.88569813865   5.04880830632   17.0104680300
Se   1.92507644270   8.37649947554   17.0104680300
Se  0.964454746751   11.7041906447   17.0104680300
Se 0.00383305080272   15.0318818140   17.0104680300
Se   11.5312934050   18.3595729832   17.0104680300
Se  0.484143898085   2.55303992941   17.0104680300
Se   12.0116042522   5.88073109863   17.0104680300
Se   11.0509825563   9.20842226784   17.0104680300
Se   10.5706717076 0.0572715525000   17.0104680300
Se   10.1955489861   13.9027434689   36.9624158930
Se   6.03285496943   13.9027434689   36.9624158930
Se   1.87016095273   13.9027434689   36.9624158930
Se   8.11420197755   10.2977447023   36.9624158930
Se   3.95150796085   10.2977447023   36.9624158930
Se   12.2768959942   10.2977447023   36.9624158930
Se   10.1955489857   6.69274593564   36.9624158930
Se   6.03285496897   6.69274593564   36.9624158930
Se   1.87016095227   6.69274593564   36.9624158930
Se   8.11420197709   3.08774716899   36.9624158930
Se   3.95150796039   3.08774716899   36.9624158930
Se   12.2768959938   3.08774716899   36.9624158930
Se   10.1955489866   21.1127410022   36.9624158930
Se   6.03285496989   21.1127410022   36.9624158930
Se   1.87016095319   21.1127410022   36.9624158930
Se   8.11420197801   17.5077422356   36.9624158930
Se   3.95150796131   17.5077422356   36.9624158930
Se   12.2768959947   17.5077422356   36.9624158930
Se   6.00391077170   16.3296257503   33.3248314276
Se   1.84121675500   16.3296257503   33.3248314276
Se   10.1666047884   16.3296257503   33.3248314276
Se   3.92256376312   12.7246269837   33.3248314276
Se   12.2479517965   12.7246269837   33.3248314276
Se   8.08525777982   12.7246269837   33.3248314276
Se   6.00391077124   9.11962821701   33.3248314276
Se   1.84121675454   9.11962821701   33.3248314276
Se   10.1666047879   9.11962821701   33.3248314276
Se   3.92256376266   5.51462945036   33.3248314276
Se   12.2479517961   5.51462945036   33.3248314276
Se   8.08525777936   5.51462945036   33.3248314276
Se   6.00391077078   1.90963068371   33.3248314276
Se   1.84121675408   1.90963068371   33.3248314276
Se   10.1666047875   1.90963068371   33.3248314276
Se   3.92256376358   19.9346245170   33.3248314276
Se   12.2479517970   19.9346245170   33.3248314276
Se   8.08525778028   19.9346245170   33.3248314276
Se   8.09792272899   15.1308303644   29.6913123135
Se   3.93522871230   15.1308303644   29.6913123135
Se   12.2606167457   15.1308303644   29.6913123135
Se   6.01657572041   11.5258315978   29.6913123135
Se   1.85388170371   11.5258315978   29.6913123135
Se   10.1792697371   11.5258315978   29.6913123135
Se   8.09792272853   7.92083283113   29.6913123135
Se   3.93522871183   7.92083283113   29.6913123135
Se   12.2606167452   7.92083283113   29.6913123135
Se   6.01657571995   4.31583406448   29.6913123135
Se   1.85388170325   4.31583406448   29.6913123135
Se   10.1792697367   4.31583406448   29.6913123135
Se   8.09792272807  0.710835297834   29.6913123135
Se   3.93522871137  0.710835297834   29.6913123135
Se   12.2606167448  0.710835297834   29.6913123135
Se   6.01657572087   18.7358291311   29.6913123135
Se   1.85388170418   18.7358291311   29.6913123135
Se   10.1792697376   18.7358291311   29.6913123135
Se   6.03959743075   16.4035064642   26.9245759022
Se   1.87690341406   16.4035064642   26.9245759022
Se   10.2022914475   16.4035064642   26.9245759022
Se   3.95825042217   12.7985076976   26.9245759022
Se   12.2836384556   12.7985076976   26.9245759022
Se   8.12094443887   12.7985076976   26.9245759022
Se   6.03959743029   9.19350893091   26.9245759022
Se   1.87690341360   9.19350893091   26.9245759022
Se   10.2022914470   9.19350893091   26.9245759022
Se   3.95825042171   5.58851016426   26.9245759022
Se   12.2836384551   5.58851016426   26.9245759022
Se   8.12094443841   5.58851016426   26.9245759022
Se   6.03959742983   1.98351139761   26.9245759022
Se   1.87690341313   1.98351139761   26.9245759022
Se   10.2022914465   1.98351139761   26.9245759022
Se   3.95825042264   20.0085052309   26.9245759022
Se   12.2836384560   20.0085052309   26.9245759022
Se   8.12094443933   20.0085052309   26.9245759022
Se   8.14060703861   15.2004685011   23.3067135554
Se   3.97791302191   15.2004685011   23.3067135554
Se   12.3033010553   15.2004685011   23.3067135554
Se   6.05926003003   11.5954697345   23.3067135554
Se   1.89656601333   11.5954697345   23.3067135554
Se   10.2219540467   11.5954697345   23.3067135554
Se   8.14060703815   7.99047096785   23.3067135554
Se   3.97791302145   7.99047096785   23.3067135554
Se   12.3033010548   7.99047096785   23.3067135554
Se   6.05926002957   4.38547220120   23.3067135554
Se   1.89656601287   4.38547220120   23.3067135554
Se   10.2219540463   4.38547220120   23.3067135554
Se   8.14060703769  0.780473434550   23.3067135554
Se   3.97791302099  0.780473434550   23.3067135554
Se   12.3033010544  0.780473434550   23.3067135554
Se   6.05926003049   18.8054672678   23.3067135554
Se   1.89656601379   18.8054672678   23.3067135554
Se   10.2219540472   18.8054672678   23.3067135554
Se   10.2300068949   13.9874636687   19.6835785923
Se   6.06731287820   13.9874636687   19.6835785923
Se   1.90461886150   13.9874636687   19.6835785923
Se   8.14865988632   10.3824649021   19.6835785923
Se   3.98596586962   10.3824649021   19.6835785923
Se   12.3113539030   10.3824649021   19.6835785923
Se   10.2300068944   6.77746613544   19.6835785923
Se   6.06731287774   6.77746613544   19.6835785923
Se   1.90461886104   6.77746613544   19.6835785923
Se   8.14865988585   3.17246736879   19.6835785923
Se   3.98596586916   3.17246736879   19.6835785923
Se   12.3113539026   3.17246736879   19.6835785923
Se   10.2300068954   21.1974612021   19.6835785923
Se   6.06731287866   21.1974612021   19.6835785923
Se   1.90461886196   21.1974612021   19.6835785923
Se   8.14865988678   17.5924624354   19.6835785923
Se   3.98596587008   17.5924624354   19.6835785923
Se   12.3113539035   17.5924624354   19.6835785923
