336
Lattice="   11.9981611    0.00000000  7.00000000e-16    2.99954028    22.5132101  1.40000000e-15    0.00000000    0.00000000    44.4624159"
Nb   4.88303620565   1.23339936629   15.3283309269
Nb   7.88257649048   2.96518475718   15.3283309269
Nb   10.8821167753   4.69697014807   15.3283309269
Nb   10.8821167755   1.23339936629   15.3283309269
Nb   1.88349592063   2.96518475718   15.3283309269
Nb   4.88303620546   4.69697014807   15.3283309269
Nb   7.88257649029   6.42875553896   15.3283309269
Nb   10.8821167751   8.16054092985   15.3283309269
Nb   1.88349592044   6.42875553896   15.3283309269
Nb   4.88303620527   8.16054092985   15.3283309269
Nb   7.88257649009   9.89232632074   15.3283309269
Nb   10.8821167749   11.6241117116   15.3283309269
Nb   1.88349592025   9.89232632074   15.3283309269
Nb   4.88303620507   11.6241117116   15.3283309269
Nb   7.88257648990   13.3558971025   15.3283309269
Nb   10.8821167747   15.0876824934   15.3283309269
Nb   1.88349592006   13.3558971025   15.3283309269
Nb   4.88303620488   15.0876824934   15.3283309269
Nb   7.88257648971   16.8194678843   15.3283309269
Nb   10.8821167745   18.5512532752   15.3283309269
Nb   13.8816570596   16.8194678843   15.3283309269
Nb   4.88303620469   18.5512532752   15.3283309269
Nb   7.88257648952   20.2830386661   15.3283309269
Nb   10.8821167744   22.0148240570   15.3283309269
Nb   13.8816570594   20.2830386661   15.3283309269
Nb   4.88303620450   22.0148240570   15.3283309269
Nb   4.87900929018   1.24233986737   9.18208868332
Nb   7.87854957501   2.97412525826   9.18208868332
Nb   10.8780898598   4.70591064915   9.18208868332
Nb   10.8780898600   1.24233986737   9.18208868332
Nb   1.87946900516   2.97412525826   9.18208868332
Nb   4.87900928999   4.70591064915   9.18208868332
Nb   7.87854957482   6.43769604004   9.18208868332
Nb   10.8780898596   8.16948143093   9.18208868332
Nb   1.87946900497   6.43769604004   9.18208868332
Nb   4.87900928980   8.16948143093   9.18208868332
Nb   7.87854957462   9.90126682182   9.18208868332
Nb   10.8780898595   11.6330522127   9.18208868332
Nb   1.87946900478   9.90126682182   9.18208868332
Nb   4.87900928961   11.6330522127   9.18208868332
Nb   7.87854957443   13.3648376036   9.18208868332
Nb   10.8780898593   15.0966229945   9.18208868332
Nb   1.87946900458   13.3648376036   9.18208868332
Nb   4.87900928941   15.0966229945   9.18208868332
Nb   7.87854957424   16.8284083854   9.18208868332
Nb   10.8780898591   18.5601937763   9.18208868332
Nb   13.8776301441   16.8284083854   9.18208868332
Nb   4.87900928922   18.5601937763   9.18208868332
Nb   7.87854957405   20.2919791672   9.18208868332
Nb   10.8780898589   22.0237645581   9.18208868332
Nb   13.8776301439   20.2919791672   9.18208868332
Nb   4.87900928903   22.0237645581   9.18208868332
Bi   5.66076381757  0.234275808022   35.3209507183
Bi   1.66137677100  0.234275808022   35.3209507183
Bi   9.66015086413  0.234275808022   35.3209507183
Bi   7.49381621370   3.98647748828   35.3209507183
Bi   3.49442916714   3.98647748828   35.3209507183
Bi   11.4932032603   3.98647748828   35.3209507183
Bi   9.32686860983   7.73867916855   35.3209507183
Bi   5.32748156327   7.73867916855   35.3209507183
Bi   1.32809451671   7.73867916855   35.3209507183
Bi   7.16053395940   11.4908808488   35.3209507183
Bi   3.16114691284   11.4908808488   35.3209507183
Bi   11.1599210060   11.4908808488   35.3209507183
Bi   8.99358635554   15.2430825291   35.3209507183
Bi   4.99419930897   15.2430825291   35.3209507183
Bi   12.9929734021   15.2430825291   35.3209507183
Bi   10.8266387517   18.9952842093   35.3209507183
Bi   6.82725170511   18.9952842093   35.3209507183
Bi   2.82786465854   18.9952842093   35.3209507183
Bi   7.59730984547   1.44920080262   31.3343077101
Bi   3.59792279891   1.44920080262   31.3343077101
Bi   11.5966968920   1.44920080262   31.3343077101
Bi   9.43036224161   5.20140248288   31.3343077101
Bi   5.43097519504   5.20140248288   31.3343077101
Bi   1.43158814848   5.20140248288   31.3343077101
Bi   11.2634146377   8.95360416315   31.3343077101
Bi   7.26402759118   8.95360416315   31.3343077101
Bi   3.26464054461   8.95360416315   31.3343077101
Bi   9.09707998731   12.7058058434   31.3343077101
Bi   5.09769294075   12.7058058434   31.3343077101
Bi   13.0964670339   12.7058058434   31.3343077101
Bi   10.9301323835   16.4580075237   31.3343077101
Bi   6.93074533688   16.4580075237   31.3343077101
Bi   2.93135829032   16.4580075237   31.3343077101
Bi   12.7631847796   20.2102092039   31.3343077101
Bi   8.76379773302   20.2102092039   31.3343077101
Bi   4.76441068645   20.2102092039   31.3343077101
Bi   7.64545253729   1.39915560104   25.2928290677
Bi   3.64606549072   1.39915560104   25.2928290677
Bi   11.6448395839   1.39915560104   25.2928290677
Bi   9.47850493342   5.15135728130   25.2928290677
Bi   5.47911788686   5.15135728130   25.2928290677
Bi   1.47973084029   5.15135728130   25.2928290677
Bi   11.3115573296   8.90355896156   25.2928290677
Bi   7.31217028299   8.90355896156   25.2928290677
Bi   3.31278323643   8.90355896156   25.2928290677
Bi   9.14522267912   12.6557606418   25.2928290677
Bi   5.14583563256   12.6557606418   25.2928290677
Bi   13.1446097257   12.6557606418   25.2928290677
Bi   10.9782750753   16.4079623221   25.2928290677
Bi   6.97888802869   16.4079623221   25.2928290677
Bi   2.97950098213   16.4079623221   25.2928290677
Bi   12.8113274714   20.1601640024   25.2928290677
Bi   8.81194042483   20.1601640024   25.2928290677
Bi   4.81255337826   20.1601640024   25.2928290677
Bi   6.74021584862   21.3982583253   21.3211086462
Bi   14.7389899418   21.3982583253   21.3211086462
Bi   10.7396028952   21.3982583253   21.3211086462
Bi   5.57372796108   2.63724992403   21.3211086462
Bi   1.57434091452   2.63724992403   21.3211086462
Bi   9.57311500764   2.63724992403   21.3211086462
Bi   7.40678035721   6.38945160430   21.3211086462
Bi   3.40739331065   6.38945160430   21.3211086462
Bi   11.4061674038   6.38945160430   21.3211086462
Bi   5.24044570678   10.1416532846   21.3211086462
Bi   13.2392197999   10.1416532846   21.3211086462
Bi   9.23983275335   10.1416532846   21.3211086462
Bi   7.07349810292   13.8938549648   21.3211086462
Bi   3.07411105635   13.8938549648   21.3211086462
Bi   11.0728851495   13.8938549648   21.3211086462
Bi   8.90655049905   17.6460566451   21.3211086462
Bi   4.90716345249   17.6460566451   21.3211086462
Bi   12.9059375456   17.6460566451   21.3211086462
Se   6.87814571027   22.0238500458   7.50000000000
Se   6.87814571142   1.24242535516   7.50000000000
Se   9.87768599625   2.97421074605   7.50000000000
Se   12.8772262801   22.0238500458   7.50000000000
Se  0.879065141571   1.24242535516   7.50000000000
Se   3.87860542640   2.97421074605   7.50000000000
Se   6.87814571123   4.70599613694   7.50000000000
Se   9.87768599605   6.43778152783   7.50000000000
Se  0.879065141379   4.70599613694   7.50000000000
Se   3.87860542621   6.43778152783   7.50000000000
Se   6.87814571103   8.16956691872   7.50000000000
Se   9.87768599586   9.90135230961   7.50000000000
Se   12.8772262809   8.16956691872   7.50000000000
Se   3.87860542601   9.90135230961   7.50000000000
Se   6.87814571084   11.6331377005   7.50000000000
Se   9.87768599567   13.3649230914   7.50000000000
Se   12.8772262807   11.6331377005   7.50000000000
Se   3.87860542582   13.3649230914   7.50000000000
Se   6.87814571065   15.0967084823   7.50000000000
Se   9.87768599548   16.8284938732   7.50000000000
Se   12.8772262805   15.0967084823   7.50000000000
Se   3.87860542563   16.8284938732   7.50000000000
Se   6.87814571046   18.5602792641   7.50000000000
Se   9.87768599529   20.2920646549   7.50000000000
Se   12.8772262803   18.5602792641   7.50000000000
Se   3.87860542544   20.2920646549   7.50000000000
Se   8.88213648988   22.0147899365   13.6460282443
Se   8.88213649103   1.23336524577   13.6460282443
Se   11.8816767759   2.96515063666   13.6460282443
Se   14.8812170597   22.0147899365   13.6460282443
Se   2.88305592118   1.23336524577   13.6460282443
Se   5.88259620601   2.96515063666   13.6460282443
Se   8.88213649084   4.69693602755   13.6460282443
Se   11.8816767757   6.42872141844   13.6460282443
Se   2.88305592099   4.69693602755   13.6460282443
Se   5.88259620582   6.42872141844   13.6460282443
Se   8.88213649065   8.16050680933   13.6460282443
Se   11.8816767755   9.89229220022   13.6460282443
Se   2.88305592080   8.16050680933   13.6460282443
Se   5.88259620563   9.89229220022   13.6460282443
Se   8.88213649045   11.6240775911   13.6460282443
Se   11.8816767753   13.3558629820   13.6460282443
Se   2.88305592061   11.6240775911   13.6460282443
Se   5.88259620544   13.3558629820   13.6460282443
Se   8.88213649026   15.0876483729   13.6460282443
Se   11.8816767751   16.8194337638   13.6460282443
Se   2.88305592042   15.0876483729   13.6460282443
Se   5.88259620524   16.8194337638   13.6460282443
Se   8.88213649007   18.5512191547   13.6460282443
Se   11.8816767749   20.2830045456   13.6460282443
Se   2.88305592022   18.5512191547   13.6460282443
Se   5.88259620505   20.2830045456   13.6460282443
Se   6.87892757391   22.0231105307   10.8644375631
Se   6.87892757507   1.24168584002   10.8644375631
Se   9.87846785989   2.97347123091   10.8644375631
Se   12.8780081438   22.0231105307   10.8644375631
Se  0.879847005220   1.24168584002   10.8644375631
Se   3.87938729005   2.97347123091   10.8644375631
Se   6.87892757487   4.70525662180   10.8644375631
Se   9.87846785970   6.43704201269   10.8644375631
Se  0.879847005028   4.70525662180   10.8644375631
Se   3.87938728986   6.43704201269   10.8644375631
Se   6.87892757468   8.16882740358   10.8644375631
Se   9.87846785951   9.90061279447   10.8644375631
Se   12.8780081445   8.16882740358   10.8644375631
Se   3.87938728966   9.90061279447   10.8644375631
Se   6.87892757449   11.6323981854   10.8644375631
Se   9.87846785932   13.3641835763   10.8644375631
Se   12.8780081443   11.6323981854   10.8644375631
Se   3.87938728947   13.3641835763   10.8644375631
Se   6.87892757430   15.0959689671   10.8644375631
Se   9.87846785912   16.8277543580   10.8644375631
Se   12.8780081441   15.0959689671   10.8644375631
Se   3.87938728928   16.8277543580   10.8644375631
Se   6.87892757411   18.5595397489   10.8644375631
Se   9.87846785893   20.2913251398   10.8644375631
Se   12.8780081440   18.5595397489   10.8644375631
Se   3.87938728909   20.2913251398   10.8644375631
Se   8.88301716988   22.0142036901   17.0104680300
Se   8.88301717103   1.23277899938   17.0104680300
Se   11.8825574559   2.96456439027   17.0104680300
Se   14.8820977397   22.0142036901   17.0104680300
Se   2.88393660119   1.23277899938   17.0104680300
Se   5.88347688601   2.96456439027   17.0104680300
Se   8.88301717084   4.69634978116   17.0104680300
Se   11.8825574557   6.42813517205   17.0104680300
Se   2.88393660099   4.69634978116   17.0104680300
Se   5.88347688582   6.42813517205   17.0104680300
Se   8.88301717065   8.15992056294   17.0104680300
Se   11.8825574555   9.89170595383   17.0104680300
Se   2.88393660080   8.15992056294   17.0104680300
Se   5.88347688563   9.89170595383   17.0104680300
Se   8.88301717046   11.6234913447   17.0104680300
Se   11.8825574553   13.3552767356   17.0104680300
Se   2.88393660061   11.6234913447   17.0104680300
Se   5.88347688544   13.3552767356   17.0104680300
Se   8.88301717026   15.0870621265   17.0104680300
Se   11.8825574551   16.8188475174   17.0104680300
Se   2.88393660042   15.0870621265   17.0104680300
Se   5.88347688524   16.8188475174   17.0104680300
Se   8.88301717007   18.5506329083   17.0104680300
Se   11.8825574549   20.2824182992   17.0104680300
Se   2.88393660023   18.5506329083   17.0104680300
Se   5.88347688505   20.2824182992   17.0104680300
Se   7.61491667639   1.49084621568   36.9624158930
Se   3.61552962982   1.49084621568   36.9624158930
Se   11.6143037230   1.49084621568   36.9624158930
Se   9.44796907252   5.24304789594   36.9624158930
Se   5.44858202596   5.24304789594   36.9624158930
Se   1.44919497939   5.24304789594   36.9624158930
Se   11.2810214687   8.99524957620   36.9624158930
Se   7.28163442209   8.99524957620   36.9624158930
Se   3.28224737553   8.99524957620   36.9624158930
Se   9.11468681822   12.7474512565   36.9624158930
Se   5.11529977166   12.7474512565   36.9624158930
Se   13.1140738648   12.7474512565   36.9624158930
Se   10.9477392144   16.4996529367   36.9624158930
Se   6.94835216779   16.4996529367   36.9624158930
Se   2.94896512123   16.4996529367   36.9624158930
Se   12.7807916105   20.2518546170   36.9624158930
Se   8.78140456393   20.2518546170   36.9624158930
Se   4.78201751736   20.2518546170   36.9624158930
Se   6.69944390095   21.4780771324   33.3248314276
Se   14.6982179941   21.4780771324   33.3248314276
Se   10.6988309475   21.4780771324   33.3248314276
Se   5.53295601341   2.71706873107   33.3248314276
Se   1.53356896685   2.71706873107   33.3248314276
Se   9.53234305998   2.71706873107   33.3248314276
Se   7.36600840955   6.46927041133   33.3248314276
Se   3.36662136298   6.46927041133   33.3248314276
Se   11.3653954561   6.46927041133   33.3248314276
Se   5.19967375912   10.2214720916   33.3248314276
Se   13.1984478523   10.2214720916   33.3248314276
Se   9.19906080568   10.2214720916   33.3248314276
Se   7.03272615525   13.9736737719   33.3248314276
Se   3.03333910869   13.9736737719   33.3248314276
Se   11.0321132018   13.9736737719   33.3248314276
Se   8.86577855139   17.7258754521   33.3248314276
Se   4.86639150482   17.7258754521   33.3248314276
Se   12.8651655980   17.7258754521   33.3248314276
Se   5.65635089361  0.212612848333   29.6913123135
Se   1.65696384704  0.212612848333   29.6913123135
Se   9.65573794017  0.212612848333   29.6913123135
Se   7.48940328974   3.96481452860   29.6913123135
Se   3.49001624318   3.96481452860   29.6913123135
Se   11.4887903363   3.96481452860   29.6913123135
Se   9.32245568587   7.71701620886   29.6913123135
Se   5.32306863931   7.71701620886   29.6913123135
Se   1.32368159274   7.71701620886   29.6913123135
Se   7.15612103544   11.4692178891   29.6913123135
Se   3.15673398888   11.4692178891   29.6913123135
Se   11.1555080820   11.4692178891   29.6913123135
Se   8.98917343158   15.2214195694   29.6913123135
Se   4.98978638501   15.2214195694   29.6913123135
Se   12.9885604781   15.2214195694   29.6913123135
Se   10.8222258277   18.9736212496   29.6913123135
Se   6.82283878115   18.9736212496   29.6913123135
Se   2.82345173458   18.9736212496   29.6913123135
Se   6.73714567114   21.4011796473   26.9245759022
Se   14.7359197643   21.4011796473   26.9245759022
Se   10.7365327177   21.4011796473   26.9245759022
Se   5.57065778360   2.64017124600   26.9245759022
Se   1.57127073704   2.64017124600   26.9245759022
Se   9.57004483017   2.64017124600   26.9245759022
Se   7.40371017974   6.39237292626   26.9245759022
Se   3.40432313317   6.39237292626   26.9245759022
Se   11.4030972263   6.39237292626   26.9245759022
Se   5.23737552930   10.1445746065   26.9245759022
Se   13.2361496224   10.1445746065   26.9245759022
Se   9.23676257587   10.1445746065   26.9245759022
Se   7.07042792544   13.8967762868   26.9245759022
Se   3.07104087888   13.8967762868   26.9245759022
Se   11.0698149720   13.8967762868   26.9245759022
Se   8.90348032157   17.6489779671   26.9245759022
Se   4.90409327501   17.6489779671   26.9245759022
Se   12.9028673681   17.6489779671   26.9245759022
Se   5.70057967579  0.140131177600   23.3067135554
Se   1.70119262922  0.140131177600   23.3067135554
Se   9.69996672235  0.140131177600   23.3067135554
Se   7.53363207192   3.89233285786   23.3067135554
Se   3.53424502536   3.89233285786   23.3067135554
Se   11.5330191185   3.89233285786   23.3067135554
Se   9.36668446805   7.64453453812   23.3067135554
Se   5.36729742149   7.64453453812   23.3067135554
Se   1.36791037493   7.64453453812   23.3067135554
Se   7.20034981762   11.3967362184   23.3067135554
Se   3.20096277106   11.3967362184   23.3067135554
Se   11.1997368642   11.3967362184   23.3067135554
Se   9.03340221376   15.1489378987   23.3067135554
Se   5.03401516719   15.1489378987   23.3067135554
Se   13.0327892603   15.1489378987   23.3067135554
Se   10.8664546099   18.9011395789   23.3067135554
Se   6.86706756333   18.9011395789   23.3067135554
Se   2.86768051676   18.9011395789   23.3067135554
Se   7.65193895690   1.40266663598   19.6835785923
Se   3.65255191033   1.40266663598   19.6835785923
Se   11.6513260035   1.40266663598   19.6835785923
Se   9.48499135303   5.15486831625   19.6835785923
Se   5.48560430647   5.15486831625   19.6835785923
Se   1.48621725990   5.15486831625   19.6835785923
Se   11.3180437492   8.90706999651   19.6835785923
Se   7.31865670260   8.90706999651   19.6835785923
Se   3.31926965604   8.90706999651   19.6835785923
Se   9.15170909874   12.6592716768   19.6835785923
Se   5.15232205217   12.6592716768   19.6835785923
Se   13.1510961453   12.6592716768   19.6835785923
Se   10.9847614949   16.4114733570   19.6835785923
Se   6.98537444831   16.4114733570   19.6835785923
Se   2.98598740174   16.4114733570   19.6835785923
Se   12.8178138910   20.1636750373   19.6835785923
Se   8.81842684444   20.1636750373   19.6835785923
Se   4.81903979788   20.1636750373   19.6835785923
