402
Lattice="   15.0973550    0.00000000  9.00000000e-16    5.56218343    22.0205355  1.40000000e-15    0.00000000    0.00000000    44.4624159"
Nb   5.82337226728   15.6465082326   15.3283309269
Nb   9.00176279811   17.0227917041   15.3283309269
Nb   12.1801533289   18.3990751756   15.3283309269
Nb   5.42607345088   12.2057995539   15.3283309269
Nb   8.60446398171   13.5820830254   15.3283309269
Nb   11.7828545125   14.9583664969   15.3283309269
Nb   14.9612450434   16.3346499684   15.3283309269
Nb   18.1396355742   17.7109334399   15.3283309269
Nb   5.02877463448   8.76509087513   15.3283309269
Nb   8.20716516531   10.1413743466   15.3283309269
Nb   11.3855556961   11.5176578181   15.3283309269
Nb   14.5639462270   12.8939412896   15.3283309269
Nb   17.7423367578   14.2702247611   15.3283309269
Nb   4.63147581807   5.32438219638   15.3283309269
Nb   7.80986634891   6.70066566788   15.3283309269
Nb   10.9882568797   8.07694913938   15.3283309269
Nb   14.1666474106   9.45323261088   15.3283309269
Nb   17.3450379414   10.8295160824   15.3283309269
Nb   4.23417700167   1.88367351763   15.3283309269
Nb   7.41256753250   3.25995698913   15.3283309269
Nb   10.5909580633   4.63624046063   15.3283309269
Nb   13.7693485942   6.01252393213   15.3283309269
Nb   16.9477391250   7.38880740363   15.3283309269
Nb   6.22067108368   19.0872169114   15.3283309269
Nb   9.39906161451   20.4635003829   15.3283309269
Nb   12.5774521453   21.8397838544   15.3283309269
Nb   10.1936592469   1.19553178187   15.3283309269
Nb   13.3720497778   2.57181525338   15.3283309269
Nb   1.45308528724   3.94809872488   15.3283309269
Nb   15.3585438598   19.7753586471   15.3283309269
Nb   18.5369343906   21.1516421186   15.3283309269
Nb   1.05578647084  0.507390046125   15.3283309269
Nb   5.82815088701   15.6379459081   9.18208868332
Nb   9.00654141784   17.0142293796   9.18208868332
Nb   12.1849319487   18.3905128511   9.18208868332
Nb   5.43085207061   12.1972372294   9.18208868332
Nb   8.60924260144   13.5735207009   9.18208868332
Nb   11.7876331323   14.9498041724   9.18208868332
Nb   14.9660236631   16.3260876439   9.18208868332
Nb   18.1444141939   17.7023711154   9.18208868332
Nb   5.03355325421   8.75652855061   9.18208868332
Nb   8.21194378504   10.1328120221   9.18208868332
Nb   11.3903343159   11.5090954936   9.18208868332
Nb   14.5687248467   12.8853789651   9.18208868332
Nb   17.7471153775   14.2616624366   9.18208868332
Nb   4.63625443780   5.31581987186   9.18208868332
Nb   7.81464496864   6.69210334336   9.18208868332
Nb   10.9930354995   8.06838681486   9.18208868332
Nb   14.1714260303   9.44467028636   9.18208868332
Nb   17.3498165611   10.8209537579   9.18208868332
Nb   4.23895562140   1.87511119310   9.18208868332
Nb   7.41734615223   3.25139466461   9.18208868332
Nb   10.5957366831   4.62767813611   9.18208868332
Nb   13.7741272139   6.00396160761   9.18208868332
Nb   16.9525177447   7.38024507911   9.18208868332
Nb   6.22544970341   19.0786545869   9.18208868332
Nb   9.40384023424   20.4549380584   9.18208868332
Nb   12.5822307651   21.8312215299   9.18208868332
Nb   10.1984378667   1.18696945735   9.18208868332
Nb   13.3768283975   2.56325292885   9.18208868332
Nb   1.45786390697   3.93953640036   9.18208868332
Nb   15.3633224795   19.7667963226   9.18208868332
Nb   18.5417130103   21.1430797941   9.18208868332
Nb   1.06056509057  0.498827721603   9.18208868332
Bi   9.02177482725   1.28867928052   35.3209507183
Bi   11.9731374631   4.43447007252   35.3209507183
Bi   4.97311069873   2.33727621119   35.3209507183
Bi   7.92447333453   5.48306700319   35.3209507183
Bi   10.8758359703   8.62885779519   35.3209507183
Bi   13.8271986061   11.7746485872   35.3209507183
Bi   13.0704389558  0.240082349855   35.3209507183
Bi  0.924446570213   3.38587314186   35.3209507183
Bi   3.87580920601   6.53166393386   35.3209507183
Bi   6.82717184181   9.67745472586   35.3209507183
Bi   9.77853447761   12.8232455179   35.3209507183
Bi   12.7298971134   15.9690363099   35.3209507183
Bi   15.6812597492   19.1148271019   35.3209507183
Bi   14.9245000989   7.58026086453   35.3209507183
Bi   2.77850771329   10.7260516565   35.3209507183
Bi   5.72987034909   13.8718424485   35.3209507183
Bi   8.68123298489   17.0176332405   35.3209507183
Bi   11.6325956207   20.1634240325   35.3209507183
Bi   16.7785612419   14.9204393792   35.3209507183
Bi   4.63256885637   18.0662301712   35.3209507183
Bi   7.58393149217   21.2120209632   35.3209507183
Bi   6.71977004277  0.571825791430   31.3343077101
Bi   9.67113267857   3.71761658343   31.3343077101
Bi   2.67110591425   1.62042272210   31.3343077101
Bi   5.62246855005   4.76621351410   31.3343077101
Bi   8.57383118585   7.91200430610   31.3343077101
Bi   11.5251938216   11.0577950981   31.3343077101
Bi   16.3306176005   21.5437644048   31.3343077101
Bi   13.7197968071   2.66901965276   31.3343077101
Bi   1.57380442153   5.81481044477   31.3343077101
Bi   4.52516705733   8.96060123677   31.3343077101
Bi   7.47652969313   12.1063920288   31.3343077101
Bi   10.4278923289   15.2521828208   31.3343077101
Bi   13.3792549647   18.3979736128   31.3343077101
Bi   12.6224953144   6.86340737543   31.3343077101
Bi   15.5738579502   10.0091981674   31.3343077101
Bi   3.42786556461   13.1549889594   31.3343077101
Bi   6.37922820041   16.3007797514   31.3343077101
Bi   9.33059083621   19.4465705434   31.3343077101
Bi   14.4765564575   14.2035858901   31.3343077101
Bi   17.4279190932   17.3493766821   31.3343077101
Bi   5.28192670769   20.4951674741   31.3343077101
Bi   6.72020043183  0.500742192821   25.2928290677
Bi   9.67156306763   3.64653298482   25.2928290677
Bi   2.67153630331   1.54933912349   25.2928290677
Bi   5.62289893911   4.69512991549   25.2928290677
Bi   8.57426157491   7.84092070749   25.2928290677
Bi   11.5256242107   10.9867114995   25.2928290677
Bi   16.3310479896   21.4726808062   25.2928290677
Bi   13.7202271962   2.59793605416   25.2928290677
Bi   1.57423481059   5.74372684616   25.2928290677
Bi   4.52559744639   8.88951763816   25.2928290677
Bi   7.47696008219   12.0353084302   25.2928290677
Bi   10.4283227180   15.1810992222   25.2928290677
Bi   13.3796853538   18.3268900142   25.2928290677
Bi   12.6229257034   6.79232377683   25.2928290677
Bi   15.5742883392   9.93811456883   25.2928290677
Bi   3.42829595367   13.0839053608   25.2928290677
Bi   6.37965858947   16.2296961528   25.2928290677
Bi   9.33102122527   19.3754869448   25.2928290677
Bi   14.4769868465   14.1325022915   25.2928290677
Bi   17.4283494823   17.2782930835   25.2928290677
Bi   5.28235709675   20.4240838755   25.2928290677
Bi   11.4081309078   1.90344807544   21.3211086462
Bi   14.3594935436   5.04923886744   21.3211086462
Bi   7.35946677926   2.95204500610   21.3211086462
Bi   10.3108294151   6.09783579810   21.3211086462
Bi   13.2621920509   9.24362659011   21.3211086462
Bi   16.2135546867   12.3894173821   21.3211086462
Bi  0.359440014947  0.854851144768   21.3211086462
Bi   3.31080265075   4.00064193677   21.3211086462
Bi   6.26216528654   7.14643272877   21.3211086462
Bi   9.21352792234   10.2922235208   21.3211086462
Bi   12.1648905581   13.4380143128   21.3211086462
Bi   15.1162531939   16.5838051048   21.3211086462
Bi   18.0676158297   19.7295958968   21.3211086462
Bi   2.21350115803   8.19502965944   21.3211086462
Bi   5.16486379383   11.3408204514   21.3211086462
Bi   8.11622642962   14.4866112434   21.3211086462
Bi   11.0675890654   17.6324020354   21.3211086462
Bi   14.0189517012   20.7781928275   21.3211086462
Bi   4.06756230111   15.5352081741   21.3211086462
Bi   7.01892493691   18.6809989661   21.3211086462
Bi   9.97028757270   21.8267897581   21.3211086462
Se   18.9387484146   15.8668282047   7.50000000000
Se   7.01978392408   17.2431116762   7.50000000000
Se   10.1981744549   18.6193951477   7.50000000000
Se   3.44409457685   12.4261195259   7.50000000000
Se   6.62248510768   13.8024029974   7.50000000000
Se   9.80087563851   15.1786864689   7.50000000000
Se   12.9792661693   16.5549699404   7.50000000000
Se   16.1576567002   17.9312534119   7.50000000000
Se   3.04679576045   8.98541084717   7.50000000000
Se   6.22518629128   10.3616943187   7.50000000000
Se   9.40357682211   11.7379777902   7.50000000000
Se   12.5819673529   13.1142612617   7.50000000000
Se   15.7603578838   14.4905447332   7.50000000000
Se   2.64949694405   5.54470216842   7.50000000000
Se   5.82788747488   6.92098563992   7.50000000000
Se   9.00627800571   8.29726911142   7.50000000000
Se   12.1846685365   9.67355258293   7.50000000000
Se   15.3630590674   11.0498360544   7.50000000000
Se   2.25219812765   2.10399348967   7.50000000000
Se   5.43058865848   3.48027696117   7.50000000000
Se   8.60897918931   4.85656043267   7.50000000000
Se   11.7873697201   6.23284390417   7.50000000000
Se   14.9657602510   7.60912737567   7.50000000000
Se   19.3360472310   19.3075368834   7.50000000000
Se   7.41708274048   20.6838203549   7.50000000000
Se   5.03328984208 0.0395682824191   7.50000000000
Se   8.21168037291   1.41585175392   7.50000000000
Se   11.3900709037   2.79213522542   7.50000000000
Se   14.5684614346   4.16841869692   7.50000000000
Se   13.3765649858   19.9956786192   7.50000000000
Se   16.5549555166   21.3719620907   7.50000000000
Se   14.1711626182  0.727710018170   7.50000000000
Se   5.02857631635   17.4813429421   13.6460282443
Se   8.20696684718   18.8576264136   13.6460282443
Se   11.3853573780   20.2339098851   13.6460282443
Se   4.63127749994   14.0406342634   13.6460282443
Se   7.80966803078   15.4169177349   13.6460282443
Se   10.9880585616   16.7932012064   13.6460282443
Se   14.1664490924   18.1694846779   13.6460282443
Se   17.3448396233   19.5457681494   13.6460282443
Se   4.23397868354   10.5999255846   13.6460282443
Se   7.41236921437   11.9762090561   13.6460282443
Se   10.5907597452   13.3524925276   13.6460282443
Se   13.7691502760   14.7287759991   13.6460282443
Se   16.9475408069   16.1050594706   13.6460282443
Se   3.83667986714   7.15921690588   13.6460282443
Se   7.01507039797   8.53550037738   13.6460282443
Se   10.1934609288   9.91178384888   13.6460282443
Se   13.3718514596   11.2880673204   13.6460282443
Se   16.5502419905   12.6643507919   13.6460282443
Se   3.43938105074   3.71850822713   13.6460282443
Se   6.61777158157   5.09479169863   13.6460282443
Se   9.79616211240   6.47107517013   13.6460282443
Se   12.9745526432   7.84735864163   13.6460282443
Se   16.1529431741   9.22364211313   13.6460282443
Se   5.42587513275   20.9220516209   13.6460282443
Se   3.04208223434  0.277799548377   13.6460282443
Se   6.22047276517   1.65408301988   13.6460282443
Se   9.39886329600   3.03036649138   13.6460282443
Se   12.5772538268   4.40664996288   13.6460282443
Se   15.7556443577   5.78293343438   13.6460282443
Se   14.5637479088   21.6101933566   13.6460282443
Se   12.1799550104  0.965941284128   13.6460282443
Se   15.3583455413   2.34222475563   13.6460282443
Se   18.9386206388   15.8678967863   10.8644375631
Se   7.01965614832   17.2441802578   10.8644375631
Se   10.1980466792   18.6204637293   10.8644375631
Se   3.44396680109   12.4271881076   10.8644375631
Se   6.62235733192   13.8034715791   10.8644375631
Se   9.80074786275   15.1797550506   10.8644375631
Se   12.9791383936   16.5560385221   10.8644375631
Se   16.1575289244   17.9323219936   10.8644375631
Se   3.04666798469   8.98647942883   10.8644375631
Se   6.22505851552   10.3627629003   10.8644375631
Se   9.40344904635   11.7390463718   10.8644375631
Se   12.5818395772   13.1153298433   10.8644375631
Se   15.7602301080   14.4916133148   10.8644375631
Se   2.64936916828   5.54577075008   10.8644375631
Se   5.82775969912   6.92205422158   10.8644375631
Se   9.00615022995   8.29833769308   10.8644375631
Se   12.1845407608   9.67462116458   10.8644375631
Se   15.3629312916   11.0509046361   10.8644375631
Se   2.25207035188   2.10506207133   10.8644375631
Se   5.43046088271   3.48134554283   10.8644375631
Se   8.60885141355   4.85762901433   10.8644375631
Se   11.7872419444   6.23391248583   10.8644375631
Se   14.9656324752   7.61019595733   10.8644375631
Se   19.3359194552   19.3086054651   10.8644375631
Se   7.41695496472   20.6848889366   10.8644375631
Se   5.03316206631 0.0406368640775   10.8644375631
Se   8.21155259714   1.41692033558   10.8644375631
Se   11.3899431280   2.79320380708   10.8644375631
Se   14.5683336588   4.16948727858   10.8644375631
Se   13.3764372100   19.9967472008   10.8644375631
Se   16.5548277408   21.3730306723   10.8644375631
Se   14.1710348424  0.728778599828   10.8644375631
Se   5.02863050696   17.4823995147   17.0104680300
Se   8.20702103779   18.8586829862   17.0104680300
Se   11.3854115686   20.2349664576   17.0104680300
Se   4.63133169056   14.0416908359   17.0104680300
Se   7.80972222139   15.4179743074   17.0104680300
Se   10.9881127522   16.7942577789   17.0104680300
Se   14.1665032831   18.1705412504   17.0104680300
Se   17.3448938139   19.5468247219   17.0104680300
Se   4.23403287415   10.6009821571   17.0104680300
Se   7.41242340499   11.9772656286   17.0104680300
Se   10.5908139358   13.3535491001   17.0104680300
Se   13.7692044666   14.7298325717   17.0104680300
Se   16.9475949975   16.1061160432   17.0104680300
Se   3.83673405775   7.16027347839   17.0104680300
Se   7.01512458859   8.53655694989   17.0104680300
Se   10.1935151194   9.91284042139   17.0104680300
Se   13.3719056503   11.2891238929   17.0104680300
Se   16.5502961811   12.6654073644   17.0104680300
Se   3.43943524135   3.71956479964   17.0104680300
Se   6.61782577218   5.09584827114   17.0104680300
Se   9.79621630301   6.47213174264   17.0104680300
Se   12.9746068338   7.84841521414   17.0104680300
Se   16.1529973647   9.22469868564   17.0104680300
Se   5.42592932336   20.9231081934   17.0104680300
Se   3.04213642495  0.278856120887   17.0104680300
Se   6.22052695578   1.65513959239   17.0104680300
Se   9.39891748661   3.03142306389   17.0104680300
Se   12.5773080174   4.40770653539   17.0104680300
Se   15.7556985483   5.78399000689   17.0104680300
Se   14.5638020994   21.6112499292   17.0104680300
Se   12.1800092010  0.966997856638   17.0104680300
Se   15.3583997319   2.34328132814   17.0104680300
Se   6.67685479398  0.585617782306   36.9624158930
Se   9.62821742978   3.73140857431   36.9624158930
Se   2.62819066547   1.63421471297   36.9624158930
Se   5.57955330127   4.78000550498   36.9624158930
Se   8.53091593706   7.92579629698   36.9624158930
Se   11.4822785729   11.0715870890   36.9624158930
Se   16.2877023517   21.5575563957   36.9624158930
Se   13.6768815583   2.68281164364   36.9624158930
Se   1.53088917275   5.82860243564   36.9624158930
Se   4.48225180855   8.97439322764   36.9624158930
Se   7.43361444434   12.1201840197   36.9624158930
Se   10.3849770801   15.2659748117   36.9624158930
Se   13.3363397159   18.4117656037   36.9624158930
Se   12.5795800656   6.87719936631   36.9624158930
Se   15.5309427014   10.0229901583   36.9624158930
Se   3.38495031583   13.1687809503   36.9624158930
Se   6.33631295163   16.3145717423   36.9624158930
Se   9.28767558743   19.4603625343   36.9624158930
Se   14.4336412087   14.2173778810   36.9624158930
Se   17.3850038445   17.3631686730   36.9624158930
Se   5.23901145891   20.5089594650   36.9624158930
Se   11.3808689202   1.98849546914   33.3248314276
Se   14.3322315560   5.13428626114   33.3248314276
Se   7.33220479165   3.03709239981   33.3248314276
Se   10.2835674275   6.18288319181   33.3248314276
Se   13.2349300632   9.32867398381   33.3248314276
Se   16.1862926991   12.4744647758   33.3248314276
Se  0.332178027333  0.939898538475   33.3248314276
Se   3.28354066313   4.08568933048   33.3248314276
Se   6.23490329893   7.23148012248   33.3248314276
Se   9.18626593473   10.3772709145   33.3248314276
Se   12.1376285705   13.5230617065   33.3248314276
Se   15.0889912063   16.6688524985   33.3248314276
Se   18.0403538421   19.8146432905   33.3248314276
Se   2.18623917041   8.28007705315   33.3248314276
Se   5.13760180621   11.4258678452   33.3248314276
Se   8.08896444201   14.5716586372   33.3248314276
Se   11.0403270778   17.7174494292   33.3248314276
Se   13.9916897136   20.8632402212   33.3248314276
Se   4.04030031349   15.6202555678   33.3248314276
Se   6.99166294929   18.7660463598   33.3248314276
Se   9.94302558509   21.9118371518   33.3248314276
Se   9.04059619376   1.27777216970   29.6913123135
Se   11.9919588296   4.42356296170   29.6913123135
Se   4.99193206524   2.32636910036   29.6913123135
Se   7.94329470104   5.47215989236   29.6913123135
Se   10.8946573368   8.61795068437   29.6913123135
Se   13.8460199726   11.7637414764   29.6913123135
Se   13.0892603223  0.229175239028   29.6913123135
Se  0.943267936725   3.37496603103   29.6913123135
Se   3.89463057252   6.52075682303   29.6913123135
Se   6.84599320832   9.66654761503   29.6913123135
Se   9.79735584412   12.8123384070   29.6913123135
Se   12.7487184799   15.9581291990   29.6913123135
Se   15.7000811157   19.1039199910   29.6913123135
Se   14.9433214654   7.56935375370   29.6913123135
Se   2.79732907980   10.7151445457   29.6913123135
Se   5.74869171560   13.8609353377   29.6913123135
Se   8.70005435140   17.0067261297   29.6913123135
Se   11.6514169872   20.1525169217   29.6913123135
Se   16.7973826084   14.9095322684   29.6913123135
Se   4.65139022288   18.0553230604   29.6913123135
Se   7.60275285868   21.2011138524   29.6913123135
Se   11.4082975874   1.90780192431   26.9245759022
Se   14.3596602232   5.05359271631   26.9245759022
Se   7.35963345890   2.95639885497   26.9245759022
Se   10.3109960947   6.10218964698   26.9245759022
Se   13.2623587305   9.24798043898   26.9245759022
Se   16.2137213663   12.3937712310   26.9245759022
Se  0.359606694583  0.859204993639   26.9245759022
Se   3.31096933038   4.00499578564   26.9245759022
Se   6.26233196618   7.15078657764   26.9245759022
Se   9.21369460198   10.2965773696   26.9245759022
Se   12.1650572378   13.4423681617   26.9245759022
Se   15.1164198736   16.5881589537   26.9245759022
Se   18.0677825094   19.7339497457   26.9245759022
Se   2.21366783766   8.19938350831   26.9245759022
Se   5.16503047346   11.3451743003   26.9245759022
Se   8.11639310926   14.4909650923   26.9245759022
Se   11.0677557451   17.6367558843   26.9245759022
Se   14.0191183809   20.7825466763   26.9245759022
Se   4.06772898074   15.5395620230   26.9245759022
Se   7.01909161654   18.6853528150   26.9245759022
Se   9.97045425234   21.8311436070   26.9245759022
Se   9.06003546626   1.19487555642   23.3067135554
Se   12.0113981021   4.34066634842   23.3067135554
Se   5.01137133774   2.24347248709   23.3067135554
Se   7.96273397354   5.38926327909   23.3067135554
Se   10.9140966093   8.53505407109   23.3067135554
Se   13.8654592451   11.6808448631   23.3067135554
Se   13.1086995948  0.146278625754   23.3067135554
Se  0.962707209222   3.29206941776   23.3067135554
Se   3.91406984502   6.43786020976   23.3067135554
Se   6.86543248082   9.58365100176   23.3067135554
Se   9.81679511662   12.7294417938   23.3067135554
Se   12.7681577524   15.8752325858   23.3067135554
Se   15.7195203882   19.0210233778   23.3067135554
Se   14.9627607379   7.48645714043   23.3067135554
Se   2.81676835230   10.6322479324   23.3067135554
Se   5.76813098810   13.7780387244   23.3067135554
Se   8.71949362390   16.9238295164   23.3067135554
Se   11.6708562597   20.0696203084   23.3067135554
Se   16.8168218809   14.8266356551   23.3067135554
Se   4.67082949538   17.9724264471   23.3067135554
Se   7.62219213118   21.1182172391   23.3067135554
Se   6.71289107621  0.497970531338   19.6835785923
Se   9.66425371201   3.64376132334   19.6835785923
Se   2.66422694769   1.54656746201   19.6835785923
Se   5.61558958349   4.69235825401   19.6835785923
Se   8.56695221929   7.83814904601   19.6835785923
Se   11.5183148551   10.9839398380   19.6835785923
Se   16.3237386340   21.4699091447   19.6835785923
Se   13.7129178405   2.59516439267   19.6835785923
Se   1.56692545497   5.74095518467   19.6835785923
Se   4.51828809077   8.88674597668   19.6835785923
Se   7.46965072657   12.0325367687   19.6835785923
Se   10.4210133624   15.1783275607   19.6835785923
Se   13.3723759982   18.3241183527   19.6835785923
Se   12.6156163478   6.78955211534   19.6835785923
Se   15.5669789836   9.93534290734   19.6835785923
Se   3.42098659805   13.0811336994   19.6835785923
Se   6.37234923385   16.2269244914   19.6835785923
Se   9.32371186965   19.3727152834   19.6835785923
Se   14.4696774909   14.1297306300   19.6835785923
Se   17.4210401267   17.2755214220   19.6835785923
Se   5.27504774113   20.4213122140   19.6835785923
