400
Lattice="   17.9972417    0.00000000  1.10000000e-15    5.99908057    17.3178539  1.10000000e-15    0.00000000    0.00000000    44.4624159"
Nb   7.24079092183   17.2565302693   15.3283309269
Nb   4.24125063705   1.67046175056   15.3283309269
Nb   13.2398714914   17.2565302693   15.3283309269
Nb   4.24125063705   5.13403253251   15.3283309269
Nb   7.24079092183   3.40224714154   15.3283309269
Nb   10.2403312066   1.67046175056   15.3283309269
Nb   19.2389520610   17.2565302693   15.3283309269
Nb   4.24125063705   8.59760331446   15.3283309269
Nb   7.24079092183   6.86581792348   15.3283309269
Nb   10.2403312066   5.13403253251   15.3283309269
Nb   13.2398714914   3.40224714154   15.3283309269
Nb   16.2394117762   1.67046175056   15.3283309269
Nb   7.24079092183   10.3293887054   15.3283309269
Nb   10.2403312066   8.59760331446   15.3283309269
Nb   13.2398714914   6.86581792348   15.3283309269
Nb   16.2394117762   5.13403253251   15.3283309269
Nb   1.24171035227   3.40224714154   15.3283309269
Nb   7.24079092183   13.7929594874   15.3283309269
Nb   10.2403312066   12.0611740964   15.3283309269
Nb   13.2398714914   10.3293887054   15.3283309269
Nb   16.2394117762   8.59760331446   15.3283309269
Nb   19.2389520610   6.86581792348   15.3283309269
Nb   10.2403312066   15.5247448784   15.3283309269
Nb   13.2398714914   13.7929594874   15.3283309269
Nb   16.2394117762   12.0611740964   15.3283309269
Nb   19.2389520610   10.3293887054   15.3283309269
Nb   16.2394117762   15.5247448784   15.3283309269
Nb   19.2389520610   13.7929594874   15.3283309269
Nb   4.24125063705   12.0611740964   15.3283309269
Nb   22.2384923457   15.5247448784   15.3283309269
Nb   7.24652016515   17.2644879310   9.18208868332
Nb   4.24697988037   1.67841941220   9.18208868332
Nb   13.2456007347   17.2644879310   9.18208868332
Nb   4.24697988037   5.14199019414   9.18208868332
Nb   7.24652016515   3.41020480317   9.18208868332
Nb   10.2460604499   1.67841941220   9.18208868332
Nb   19.2446813043   17.2644879310   9.18208868332
Nb   4.24697988037   8.60556097609   9.18208868332
Nb   7.24652016515   6.87377558512   9.18208868332
Nb   10.2460604499   5.14199019414   9.18208868332
Nb   13.2456007347   3.41020480317   9.18208868332
Nb   16.2451410195   1.67841941220   9.18208868332
Nb   7.24652016515   10.3373463671   9.18208868332
Nb   10.2460604499   8.60556097609   9.18208868332
Nb   13.2456007347   6.87377558512   9.18208868332
Nb   16.2451410195   5.14199019414   9.18208868332
Nb   1.24743959559   3.41020480317   9.18208868332
Nb   7.24652016515   13.8009171490   9.18208868332
Nb   10.2460604499   12.0691317580   9.18208868332
Nb   13.2456007347   10.3373463671   9.18208868332
Nb   16.2451410195   8.60556097609   9.18208868332
Nb   19.2446813043   6.87377558512   9.18208868332
Nb   10.2460604499   15.5327025400   9.18208868332
Nb   13.2456007347   13.8009171490   9.18208868332
Nb   16.2451410195   12.0691317580   9.18208868332
Nb   19.2446813043   10.3373463671   9.18208868332
Nb   16.2451410195   15.5327025400   9.18208868332
Nb   19.2446813043   13.8009171490   9.18208868332
Nb   4.24697988037   12.0691317580   9.18208868332
Nb   22.2442215890   15.5327025400   9.18208868332
Bi   10.0355416377   1.34481114123   35.3209507183
Bi   13.8531383638   2.91916149666   35.3209507183
Bi   17.6707350899   4.49351185209   35.3209507183
Bi   17.1253641290  0.557635963516   35.3209507183
Bi   2.94571914641   2.13198631895   35.3209507183
Bi   6.76331587250   3.70633667438   35.3209507183
Bi   10.5809125986   5.28068702981   35.3209507183
Bi   14.3985093247   6.85503738524   35.3209507183
Bi   18.2161060508   8.42938774067   35.3209507183
Bi   3.49109010728   6.06786220752   35.3209507183
Bi   7.30868683337   7.64221256295   35.3209507183
Bi   11.1262835595   9.21656291838   35.3209507183
Bi   14.9438802855   10.7909132738   35.3209507183
Bi   18.7614770116   12.3652636292   35.3209507183
Bi   4.03646106815   10.0037380961   35.3209507183
Bi   7.85405779424   11.5780884515   35.3209507183
Bi   11.6716545203   13.1524388070   35.3209507183
Bi   15.4892512464   14.7267891624   35.3209507183
Bi   19.3068479725   16.3011395178   35.3209507183
Bi   22.5790737377   13.9396139847   35.3209507183
Bi   8.39942875510   15.5139643401   35.3209507183
Bi   12.2170254812   17.0883146955   35.3209507183
Bi   7.69405227611   1.58077137369   31.3343077101
Bi   11.5116490022   3.15512172912   31.3343077101
Bi   15.3292457283   4.72947208455   31.3343077101
Bi   14.7838747674  0.793596195977   31.3343077101
Bi   18.6014714935   2.36794655141   31.3343077101
Bi   4.42182651090   3.94229690684   31.3343077101
Bi   8.23942323698   5.51664726227   31.3343077101
Bi   12.0570199631   7.09099761770   31.3343077101
Bi   15.8746166891   8.66534797313   31.3343077101
Bi   19.1468424544   6.30382243998   31.3343077101
Bi   4.96719747177   7.87817279541   31.3343077101
Bi   8.78479419785   9.45252315084   31.3343077101
Bi   12.6023909239   11.0268735063   31.3343077101
Bi   16.4199876500   12.6012238617   31.3343077101
Bi   19.6922134152   10.2396983286   31.3343077101
Bi   5.51256843263   11.8140486840   31.3343077101
Bi   9.33016515872   13.3883990394   31.3343077101
Bi   13.1477618848   14.9627493949   31.3343077101
Bi   16.9653586109   16.5370997503   31.3343077101
Bi   20.2375843761   14.1755742171   31.3343077101
Bi   6.05793939350   15.7499245726   31.3343077101
Bi   3.87645555003 0.00642101826221   31.3343077101
Bi   7.66840423719   1.52069904639   25.2928290677
Bi   11.4860009633   3.09504940182   25.2928290677
Bi   15.3035976894   4.66939975725   25.2928290677
Bi   14.7582267285  0.733523868678   25.2928290677
Bi   18.5758234546   2.30787422411   25.2928290677
Bi   4.39617847198   3.88222457954   25.2928290677
Bi   8.21377519806   5.45657493497   25.2928290677
Bi   12.0313719241   7.03092529040   25.2928290677
Bi   15.8489686502   8.60527564583   25.2928290677
Bi   19.1211944154   6.24375011268   25.2928290677
Bi   4.94154943284   7.81810046811   25.2928290677
Bi   8.75914615893   9.39245082354   25.2928290677
Bi   12.5767428850   10.9668011790   25.2928290677
Bi   16.3943396111   12.5411515344   25.2928290677
Bi   19.6665653763   10.1796260013   25.2928290677
Bi   5.48692039371   11.7539763567   25.2928290677
Bi   9.30451711980   13.3283267121   25.2928290677
Bi   13.1221138459   14.9026770675   25.2928290677
Bi   16.9397105720   16.4770274230   25.2928290677
Bi   20.2119363372   14.1155018898   25.2928290677
Bi   6.03229135458   15.6898522453   25.2928290677
Bi   9.84988808066   17.2642026007   25.2928290677
Bi   12.4158159361  0.992018829882   21.3211086462
Bi   16.2334126622   2.56636918531   21.3211086462
Bi   2.05376767959   4.14071954074   21.3211086462
Bi   1.50839671872  0.204843652167   21.3211086462
Bi   5.32599344480   1.77919400760   21.3211086462
Bi   9.14359017088   3.35354436303   21.3211086462
Bi   12.9611868970   4.92789471846   21.3211086462
Bi   16.7787836230   6.50224507389   21.3211086462
Bi   20.5963803491   8.07659542932   21.3211086462
Bi   5.87136440567   5.71506989617   21.3211086462
Bi   9.68896113175   7.28942025160   21.3211086462
Bi   13.5065578578   8.86377060703   21.3211086462
Bi   17.3241545839   10.4381209625   21.3211086462
Bi   21.1417513100   12.0124713179   21.3211086462
Bi   6.41673536654   9.65094578475   21.3211086462
Bi   10.2343320926   11.2252961402   21.3211086462
Bi   14.0519288187   12.7996464956   21.3211086462
Bi   17.8695255448   14.3739968510   21.3211086462
Bi   21.6871222709   15.9483472065   21.3211086462
Bi   6.96210632741   13.5868216733   21.3211086462
Bi   10.7797030535   15.1611720287   21.3211086462
Bi   14.5972997796   16.7355223842   21.3211086462
Se   23.2438638342   17.2650131394   7.50000000000
Se   2.24708184076   1.67894462062   7.50000000000
Se   11.2457026951   17.2650131394   7.50000000000
Se   2.24708184076   5.14251540256   7.50000000000
Se   5.24662212554   3.41073001159   7.50000000000
Se   8.24616241032   1.67894462062   7.50000000000
Se   17.2447832647   17.2650131394   7.50000000000
Se   20.2443235494   8.60608618451   7.50000000000
Se   5.24662212554   6.87430079354   7.50000000000
Se   8.24616241032   5.14251540256   7.50000000000
Se   11.2457026951   3.41073001159   7.50000000000
Se   14.2452429799   1.67894462062   7.50000000000
Se   5.24662212554   10.3378715755   7.50000000000
Se   8.24616241032   8.60608618451   7.50000000000
Se   11.2457026951   6.87430079354   7.50000000000
Se   14.2452429799   5.14251540256   7.50000000000
Se   17.2447832647   3.41073001159   7.50000000000
Se   5.24662212554   13.8014423574   7.50000000000
Se   8.24616241032   12.0696569665   7.50000000000
Se   11.2457026951   10.3378715755   7.50000000000
Se   14.2452429799   8.60608618451   7.50000000000
Se   17.2447832647   6.87430079354   7.50000000000
Se   8.24616241032   15.5332277484   7.50000000000
Se   11.2457026951   13.8014423574   7.50000000000
Se   14.2452429799   12.0696569665   7.50000000000
Se   17.2447832647   10.3378715755   7.50000000000
Se   14.2452429799   15.5332277484   7.50000000000
Se   17.2447832647   13.8014423574   7.50000000000
Se   20.2443235494   12.0696569665   7.50000000000
Se   20.2443235494   15.5332277484   7.50000000000
Se   6.24077123040   15.5249761606   13.6460282443
Se   9.24031151518   17.2567615515   13.6460282443
Se   12.2398518000   15.5249761606   13.6460282443
Se   3.24123094562   3.40247842374   13.6460282443
Se   6.24077123040   1.67069303277   13.6460282443
Se   15.2393920847   17.2567615515   13.6460282443
Se   18.2389323695   15.5249761606   13.6460282443
Se   3.24123094562   6.86604920569   13.6460282443
Se   6.24077123040   5.13426381472   13.6460282443
Se   9.24031151518   3.40247842374   13.6460282443
Se   12.2398518000   1.67069303277   13.6460282443
Se   21.2384726543   17.2567615515   13.6460282443
Se   6.24077123040   8.59783459666   13.6460282443
Se   9.24031151518   6.86604920569   13.6460282443
Se   12.2398518000   5.13426381472   13.6460282443
Se   15.2393920847   3.40247842374   13.6460282443
Se   18.2389323695   1.67069303277   13.6460282443
Se   6.24077123040   12.0614053786   13.6460282443
Se   9.24031151518   10.3296199876   13.6460282443
Se   12.2398518000   8.59783459666   13.6460282443
Se   15.2393920847   6.86604920569   13.6460282443
Se   18.2389323695   5.13426381472   13.6460282443
Se   9.24031151518   13.7931907696   13.6460282443
Se   12.2398518000   12.0614053786   13.6460282443
Se   15.2393920847   10.3296199876   13.6460282443
Se   18.2389323695   8.59783459666   13.6460282443
Se   15.2393920847   13.7931907696   13.6460282443
Se   18.2389323695   12.0614053786   13.6460282443
Se   21.2384726543   10.3296199876   13.6460282443
Se   21.2384726543   13.7931907696   13.6460282443
Se   23.2436143271   17.2639662680   10.8644375631
Se   2.24683233369   1.67789774927   10.8644375631
Se   11.2454531880   17.2639662680   10.8644375631
Se   2.24683233369   5.14146853121   10.8644375631
Se   5.24637261847   3.40968314024   10.8644375631
Se   8.24591290325   1.67789774927   10.8644375631
Se   17.2445337576   17.2639662680   10.8644375631
Se   20.2440740424   8.60503931316   10.8644375631
Se   5.24637261847   6.87325392219   10.8644375631
Se   8.24591290325   5.14146853121   10.8644375631
Se   11.2454531880   3.40968314024   10.8644375631
Se   14.2449934728   1.67789774927   10.8644375631
Se   5.24637261847   10.3368247041   10.8644375631
Se   8.24591290325   8.60503931316   10.8644375631
Se   11.2454531880   6.87325392219   10.8644375631
Se   14.2449934728   5.14146853121   10.8644375631
Se   17.2445337576   3.40968314024   10.8644375631
Se   5.24637261847   13.8003954861   10.8644375631
Se   8.24591290325   12.0686100951   10.8644375631
Se   11.2454531880   10.3368247041   10.8644375631
Se   14.2449934728   8.60503931316   10.8644375631
Se   17.2445337576   6.87325392219   10.8644375631
Se   8.24591290325   15.5321808771   10.8644375631
Se   11.2454531880   13.8003954861   10.8644375631
Se   14.2449934728   12.0686100951   10.8644375631
Se   17.2445337576   10.3368247041   10.8644375631
Se   14.2449934728   15.5321808771   10.8644375631
Se   17.2445337576   13.8003954861   10.8644375631
Se   20.2440740424   12.0686100951   10.8644375631
Se   20.2440740424   15.5321808771   10.8644375631
Se   6.24070386614   15.5239203461   17.0104680300
Se   9.24024415092   17.2557057371   17.0104680300
Se   12.2397844357   15.5239203461   17.0104680300
Se   3.24116358136   3.40142260930   17.0104680300
Se   6.24070386614   1.66963721832   17.0104680300
Se   15.2393247205   17.2557057371   17.0104680300
Se   18.2388650053   15.5239203461   17.0104680300
Se   3.24116358136   6.86499339124   17.0104680300
Se   6.24070386614   5.13320800027   17.0104680300
Se   9.24024415092   3.40142260930   17.0104680300
Se   12.2397844357   1.66963721832   17.0104680300
Se   21.2384052900   17.2557057371   17.0104680300
Se   6.24070386614   8.59677878222   17.0104680300
Se   9.24024415092   6.86499339124   17.0104680300
Se   12.2397844357   5.13320800027   17.0104680300
Se   15.2393247205   3.40142260930   17.0104680300
Se   18.2388650053   1.66963721832   17.0104680300
Se   6.24070386614   12.0603495642   17.0104680300
Se   9.24024415092   10.3285641732   17.0104680300
Se   12.2397844357   8.59677878222   17.0104680300
Se   15.2393247205   6.86499339124   17.0104680300
Se   18.2388650053   5.13320800027   17.0104680300
Se   9.24024415092   13.7921349551   17.0104680300
Se   12.2397844357   12.0603495642   17.0104680300
Se   15.2393247205   10.3285641732   17.0104680300
Se   18.2388650053   8.59677878222   17.0104680300
Se   15.2393247205   13.7921349551   17.0104680300
Se   18.2388650053   12.0603495642   17.0104680300
Se   21.2384052900   10.3285641732   17.0104680300
Se   21.2384052900   13.7921349551   17.0104680300
Se   7.66034770647   1.60805961460   36.9624158930
Se   11.4779444326   3.18240997003   36.9624158930
Se   15.2955411586   4.75676032546   36.9624158930
Se   14.7501701978  0.820884436882   36.9624158930
Se   18.5677669239   2.39523479231   36.9624158930
Se   4.38812194125   3.96958514774   36.9624158930
Se   8.20571866734   5.54393550317   36.9624158930
Se   12.0233153934   7.11828585860   36.9624158930
Se   15.8409121195   8.69263621403   36.9624158930
Se   19.1131378847   6.33111068089   36.9624158930
Se   4.93349290212   7.90546103632   36.9624158930
Se   8.75108962820   9.47981139175   36.9624158930
Se   12.5686863543   11.0541617472   36.9624158930
Se   16.3862830804   12.6285121026   36.9624158930
Se   19.6585088456   10.2669865695   36.9624158930
Se   5.47886386299   11.8413369249   36.9624158930
Se   9.29646058907   13.4156872803   36.9624158930
Se   13.1140573152   14.9900376358   36.9624158930
Se   16.9316540412   16.5643879912   36.9624158930
Se   20.2038798065   14.2028624580   36.9624158930
Se   6.02423482386   15.7772128135   36.9624158930
Se   3.84275098039 0.0337092591665   36.9624158930
Se   12.4223473220   1.07365400530   33.3248314276
Se   16.2399440480   2.64800436073   33.3248314276
Se   2.06029906545   4.22235471616   33.3248314276
Se   1.51492810458  0.286478827587   33.3248314276
Se   5.33252483066   1.86082918302   33.3248314276
Se   9.15012155675   3.43517953845   33.3248314276
Se   12.9677182828   5.00952989388   33.3248314276
Se   16.7853150089   6.58388024931   33.3248314276
Se   20.6029117350   8.15823060474   33.3248314276
Se   5.87789579153   5.79670507159   33.3248314276
Se   9.69549251762   7.37105542702   33.3248314276
Se   13.5130892437   8.94540578245   33.3248314276
Se   17.3306859698   10.5197561379   33.3248314276
Se   21.1482826959   12.0941064933   33.3248314276
Se   6.42326675240   9.73258096017   33.3248314276
Se   10.2408634785   11.3069313156   33.3248314276
Se   14.0584602046   12.8812816710   33.3248314276
Se   17.8760569307   14.4556320265   33.3248314276
Se   21.6936536567   16.0299823819   33.3248314276
Se   6.96863771327   13.6684568487   33.3248314276
Se   10.7862344394   15.2428072042   33.3248314276
Se   14.6038311654   16.8171575596   33.3248314276
Se   10.0485439401   1.32874829517   29.6913123135
Se   13.8661406662   2.90309865060   29.6913123135
Se   17.6837373922   4.47744900603   29.6913123135
Se   17.1383664314  0.541573117454   29.6913123135
Se   2.95872144879   2.11592347288   29.6913123135
Se   6.77631817487   3.69027382831   29.6913123135
Se   10.5939149010   5.26462418374   29.6913123135
Se   14.4115116270   6.83897453918   29.6913123135
Se   18.2291083531   8.41332489460   29.6913123135
Se   3.50409240966   6.05179936146   29.6913123135
Se   7.32168913574   7.62614971689   29.6913123135
Se   11.1392858618   9.20050007232   29.6913123135
Se   14.9568825879   10.7748504278   29.6913123135
Se   18.7744793140   12.3492007832   29.6913123135
Se   4.04946337052   9.98767525004   29.6913123135
Se   7.86706009661   11.5620256055   29.6913123135
Se   11.6846568227   13.1363759609   29.6913123135
Se   15.5022535488   14.7107263163   29.6913123135
Se   19.3198502749   16.2850766718   29.6913123135
Se   22.5920760401   13.9235511386   29.6913123135
Se   8.41243105748   15.4979014940   29.6913123135
Se   12.2300277836   17.0722518495   29.6913123135
Se   12.4175612040  0.995627785760   26.9245759022
Se   16.2351579301   2.56997814119   26.9245759022
Se   2.05551294749   4.14432849662   26.9245759022
Se   1.51014198663  0.208452608045   26.9245759022
Se   5.32773871271   1.78280296348   26.9245759022
Se   9.14533543879   3.35715331891   26.9245759022
Se   12.9629321649   4.93150367434   26.9245759022
Se   16.7805288910   6.50585402977   26.9245759022
Se   20.5981256170   8.08020438520   26.9245759022
Se   5.87310967358   5.71867885205   26.9245759022
Se   9.69070639966   7.29302920748   26.9245759022
Se   13.5083031257   8.86737956291   26.9245759022
Se   17.3258998518   10.4417299183   26.9245759022
Se   21.1434965779   12.0160802738   26.9245759022
Se   6.41848063445   9.65455474063   26.9245759022
Se   10.2360773605   11.2289050961   26.9245759022
Se   14.0536740866   12.8032554515   26.9245759022
Se   17.8712708127   14.3776058069   26.9245759022
Se   21.6888675388   15.9519561624   26.9245759022
Se   6.96385159532   13.5904306292   26.9245759022
Se   10.7814483214   15.1647809846   26.9245759022
Se   14.5990450475   16.7391313401   26.9245759022
Se   10.0357357310   1.25178110990   23.3067135554
Se   13.8533324571   2.82613146533   23.3067135554
Se   17.6709291832   4.40048182076   23.3067135554
Se   17.1255582223  0.464605932189   23.3067135554
Se   2.94591323970   2.03895628762   23.3067135554
Se   6.76350996578   3.61330664305   23.3067135554
Se   10.5811066919   5.18765699848   23.3067135554
Se   14.3987034179   6.76200735391   23.3067135554
Se   18.2163001440   8.33635770934   23.3067135554
Se   3.49128420057   5.97483217620   23.3067135554
Se   7.30888092665   7.54918253163   23.3067135554
Se   11.1264776527   9.12353288705   23.3067135554
Se   14.9440743788   10.6978832425   23.3067135554
Se   18.7616711049   12.2722335979   23.3067135554
Se   4.03665516143   9.91070806477   23.3067135554
Se   7.85425188752   11.4850584202   23.3067135554
Se   11.6718486136   13.0594087756   23.3067135554
Se   15.4894453397   14.6337591311   23.3067135554
Se   19.3070420658   16.2081094865   23.3067135554
Se   22.5792678310   13.8465839533   23.3067135554
Se   8.39962284839   15.4209343088   23.3067135554
Se   12.2172195745   16.9952846642   23.3067135554
Se   7.66078801675   1.52103062217   19.6835785923
Se   11.4783847428   3.09538097760   19.6835785923
Se   15.2959814689   4.66973133303   19.6835785923
Se   14.7506105080  0.733855444450   19.6835785923
Se   18.5682072341   2.30820579988   19.6835785923
Se   4.38856225154   3.88255615531   19.6835785923
Se   8.20615897762   5.45690651074   19.6835785923
Se   12.0237557037   7.03125686617   19.6835785923
Se   15.8413524298   8.60560722160   19.6835785923
Se   19.1135781950   6.24408168846   19.6835785923
Se   4.93393321241   7.81843204389   19.6835785923
Se   8.75152993849   9.39278239932   19.6835785923
Se   12.5691266646   10.9671327548   19.6835785923
Se   16.3867233907   12.5414831102   19.6835785923
Se   19.6589491559   10.1799575770   19.6835785923
Se   5.47930417327   11.7543079325   19.6835785923
Se   9.29690089936   13.3286582879   19.6835785923
Se   13.1144976254   14.9030086433   19.6835785923
Se   16.9320943515   16.4773589987   19.6835785923
Se   20.2043201167   14.1158334656   19.6835785923
Se   6.02467513414   15.6901838210   19.6835785923
Se   9.84227186023   17.2645341765   19.6835785923
