400
Lattice="   17.3178539    0.00000000  1.10000000e-15    6.92714156    17.9972417  1.20000000e-15    0.00000000    0.00000000    44.4624159"
Nb   19.8466315637   11.7269779637   15.3283309269
Nb   16.3830607819   11.7269779637   15.3283309269
Nb   12.9194900001   11.7269779637   15.3283309269
Nb   9.45591921831   11.7269779637   15.3283309269
Nb   5.99234843653   11.7269779637   15.3283309269
Nb   18.1148461729   8.72743767874   15.3283309269
Nb   14.6512753912   8.72743767874   15.3283309269
Nb   11.1877046094   8.72743767874   15.3283309269
Nb   7.72413382759   8.72743767874   15.3283309269
Nb   4.26056304581   8.72743767874   15.3283309269
Nb   16.3830607822   5.72789739382   15.3283309269
Nb   12.9194900004   5.72789739382   15.3283309269
Nb   9.45591921864   5.72789739382   15.3283309269
Nb   5.99234843686   5.72789739382   15.3283309269
Nb   2.52877765508   5.72789739382   15.3283309269
Nb   14.6512753915   2.72835710890   15.3283309269
Nb   11.1877046097   2.72835710890   15.3283309269
Nb   7.72413382792   2.72835710890   15.3283309269
Nb   4.26056304614   2.72835710890   15.3283309269
Nb   18.1148461733   2.72835710890   15.3283309269
Nb   19.8466315633   17.7260585335   15.3283309269
Nb   16.3830607815   17.7260585335   15.3283309269
Nb   12.9194899998   17.7260585335   15.3283309269
Nb   9.45591921798   17.7260585335   15.3283309269
Nb   23.3102023451   17.7260585335   15.3283309269
Nb   18.1148461726   14.7265182486   15.3283309269
Nb   14.6512753908   14.7265182486   15.3283309269
Nb   11.1877046090   14.7265182486   15.3283309269
Nb   7.72413382725   14.7265182486   15.3283309269
Nb   21.5784169544   14.7265182486   15.3283309269
Nb   19.8456487242   11.7172218049   9.18208868332
Nb   16.3820779424   11.7172218049   9.18208868332
Nb   12.9185071606   11.7172218049   9.18208868332
Nb   9.45493637886   11.7172218049   9.18208868332
Nb   5.99136559708   11.7172218049   9.18208868332
Nb   18.1138633335   8.71768151995   9.18208868332
Nb   14.6502925517   8.71768151995   9.18208868332
Nb   11.1867217699   8.71768151995   9.18208868332
Nb   7.72315098814   8.71768151995   9.18208868332
Nb   4.25958020636   8.71768151995   9.18208868332
Nb   16.3820779428   5.71814123503   9.18208868332
Nb   12.9185071610   5.71814123503   9.18208868332
Nb   9.45493637920   5.71814123503   9.18208868332
Nb   5.99136559742   5.71814123503   9.18208868332
Nb   2.52779481564   5.71814123503   9.18208868332
Nb   14.6502925520   2.71860095011   9.18208868332
Nb   11.1867217703   2.71860095011   9.18208868332
Nb   7.72315098847   2.71860095011   9.18208868332
Nb   4.25958020669   2.71860095011   9.18208868332
Nb   18.1138633338   2.71860095011   9.18208868332
Nb   19.8456487239   17.7163023747   9.18208868332
Nb   16.3820779421   17.7163023747   9.18208868332
Nb   12.9185071603   17.7163023747   9.18208868332
Nb   9.45493637853   17.7163023747   9.18208868332
Nb   23.3092195057   17.7163023747   9.18208868332
Nb   18.1138633332   14.7167620898   9.18208868332
Nb   14.6502925514   14.7167620898   9.18208868332
Nb   11.1867217696   14.7167620898   9.18208868332
Nb   7.72315098781   14.7167620898   9.18208868332
Nb   21.5774341149   14.7167620898   9.18208868332
Bi   9.77939378266   1.44238611518   35.3209507183
Bi   13.5578346354   3.07849899787   35.3209507183
Bi   17.3362754882   4.71461188056   35.3209507183
Bi   16.5491003107  0.624329673841   35.3209507183
Bi   3.00968725459   2.26044255653   35.3209507183
Bi   6.78812810735   3.89655543921   35.3209507183
Bi   10.5665689601   5.53266832190   35.3209507183
Bi   14.3450098129   7.16878120458   35.3209507183
Bi   18.1234506656   8.80489408727   35.3209507183
Bi   3.79686243204   6.35072476324   35.3209507183
Bi   7.57530328480   7.98683764593   35.3209507183
Bi   11.3537441376   9.62295052861   35.3209507183
Bi   15.1321849903   11.2590634113   35.3209507183
Bi   18.9106258431   12.8951762940   35.3209507183
Bi   4.58403760949   10.4410069699   35.3209507183
Bi   8.36247846225   12.0771198526   35.3209507183
Bi   12.1409193150   13.7132327353   35.3209507183
Bi   15.9193601678   15.3493456180   35.3209507183
Bi   19.6978010205   16.9854585007   35.3209507183
Bi   22.6890666958   14.5312891767   35.3209507183
Bi   9.14965363970   16.1674020594   35.3209507183
Bi   12.9280944925   17.8035149420   35.3209507183
Bi   7.54202527606   1.68760318189   31.3343077101
Bi   11.3204661288   3.32371606458   31.3343077101
Bi   15.0989069816   4.95982894726   31.3343077101
Bi   14.3117318041  0.869546740551   31.3343077101
Bi   18.0901726569   2.50565962324   31.3343077101
Bi   4.55075960076   4.14177250592   31.3343077101
Bi   8.32920045351   5.77788538861   31.3343077101
Bi   12.1076413063   7.41399827129   31.3343077101
Bi   15.8860821590   9.05011115398   31.3343077101
Bi   18.8773478344   6.59594182995   31.3343077101
Bi   5.33793477821   8.23205471264   31.3343077101
Bi   9.11637563097   9.86816759532   31.3343077101
Bi   12.8948164837   11.5042804780   31.3343077101
Bi   16.6732573365   13.1403933607   31.3343077101
Bi   19.6645230118   10.6862240367   31.3343077101
Bi   6.12510995566   12.3223369194   31.3343077101
Bi   9.90355080842   13.9584498020   31.3343077101
Bi   13.6819916612   15.5945626847   31.3343077101
Bi   17.4604325139   17.2306755674   31.3343077101
Bi   20.4516981893   14.7765062434   31.3343077101
Bi   6.91228513311   16.4126191261   31.3343077101
Bi   3.76358442330 0.0514902992079   31.3343077101
Bi   7.51334061729   1.62517418809   25.2928290677
Bi   11.2917814701   3.26128707077   25.2928290677
Bi   15.0702223228   4.89739995346   25.2928290677
Bi   14.2830471454  0.807117746744   25.2928290677
Bi   18.0614879981   2.44323062943   25.2928290677
Bi   4.52207494198   4.07934351212   25.2928290677
Bi   8.30051579474   5.71545639480   25.2928290677
Bi   12.0789566475   7.35156927749   25.2928290677
Bi   15.8573975003   8.98768216017   25.2928290677
Bi   18.8486631756   6.53351283614   25.2928290677
Bi   5.30925011943   8.16962571883   25.2928290677
Bi   9.08769097219   9.80573860151   25.2928290677
Bi   12.8661318250   11.4418514842   25.2928290677
Bi   16.6445726777   13.0779643669   25.2928290677
Bi   19.6358383530   10.6237950429   25.2928290677
Bi   6.09642529688   12.2599079255   25.2928290677
Bi   9.87486614964   13.8960208082   25.2928290677
Bi   13.6533070024   15.5321336909   25.2928290677
Bi   17.4317478552   17.1682465736   25.2928290677
Bi   20.4230135305   14.7140772496   25.2928290677
Bi   6.88360047433   16.3501901323   25.2928290677
Bi   10.6620413271   17.9863030149   25.2928290677
Bi   12.0462943068   1.07575359052   21.3211086462
Bi   15.8247351596   2.71186647321   21.3211086462
Bi   2.28532210344   4.34797935590   21.3211086462
Bi   1.49814692599  0.257697149181   21.3211086462
Bi   5.27658777876   1.89381003187   21.3211086462
Bi   9.05502863152   3.52992291455   21.3211086462
Bi   12.8334694843   5.16603579724   21.3211086462
Bi   16.6119103370   6.80214867992   21.3211086462
Bi   20.3903511898   8.43826156261   21.3211086462
Bi   6.06376295620   5.98409223858   21.3211086462
Bi   9.84220380897   7.62020512127   21.3211086462
Bi   13.6206446617   9.25631800395   21.3211086462
Bi   17.3990855145   10.8924308866   21.3211086462
Bi   21.1775263672   12.5285437693   21.3211086462
Bi   6.85093813366   10.0743744453   21.3211086462
Bi   10.6293789864   11.7104873280   21.3211086462
Bi   14.4078198392   13.3466002107   21.3211086462
Bi   18.1862606919   14.9827130934   21.3211086462
Bi   21.9647015447   16.6188259760   21.3211086462
Bi   7.63811331111   14.1646566520   21.3211086462
Bi   11.4165541639   15.8007695347   21.3211086462
Bi   15.1949950166   17.4368824174   21.3211086462
Se   21.5778738357   12.7167159809   7.50000000000
Se   18.1143030539   12.7167159809   7.50000000000
Se   14.6507322721   12.7167159809   7.50000000000
Se   11.1871614903   12.7167159809   7.50000000000
Se   7.72359070855   12.7167159809   7.50000000000
Se   19.8460884449   9.71717569597   7.50000000000
Se   16.3825176632   9.71717569597   7.50000000000
Se   12.9189468814   9.71717569597   7.50000000000
Se   9.45537609960   9.71717569597   7.50000000000
Se   5.99180531782   9.71717569597   7.50000000000
Se   18.1143030542   6.71763541105   7.50000000000
Se   14.6507322724   6.71763541105   7.50000000000
Se   11.1871614907   6.71763541105   7.50000000000
Se   7.72359070888   6.71763541105   7.50000000000
Se   4.26001992710   6.71763541105   7.50000000000
Se   16.3825176635   3.71809512612   7.50000000000
Se   12.9189468817   3.71809512612   7.50000000000
Se   9.45537609994   3.71809512612   7.50000000000
Se   5.99180531816   3.71809512612   7.50000000000
Se   2.52823453638   3.71809512612   7.50000000000
Se   14.6507322728  0.718554841201   7.50000000000
Se   11.1871614910  0.718554841201   7.50000000000
Se   7.72359070921  0.718554841201   7.50000000000
Se   4.26001992743  0.718554841201   7.50000000000
Se  0.796449145652  0.718554841201   7.50000000000
Se   19.8460884446   15.7162562658   7.50000000000
Se   16.3825176628   15.7162562658   7.50000000000
Se   12.9189468811   15.7162562658   7.50000000000
Se   9.45537609927   15.7162562658   7.50000000000
Se   23.3096592264   15.7162562658   7.50000000000
Se   19.8468969663   13.7265576556   13.6460282443
Se   16.3833261845   13.7265576556   13.6460282443
Se   12.9197554027   13.7265576556   13.6460282443
Se   9.45618462093   13.7265576556   13.6460282443
Se   5.99261383915   13.7265576556   13.6460282443
Se   18.1151115756   10.7270173707   13.6460282443
Se   14.6515407938   10.7270173707   13.6460282443
Se   11.1879700120   10.7270173707   13.6460282443
Se   7.72439923021   10.7270173707   13.6460282443
Se   4.26082844843   10.7270173707   13.6460282443
Se   16.3833261848   7.72747708575   13.6460282443
Se   12.9197554030   7.72747708575   13.6460282443
Se   9.45618462126   7.72747708575   13.6460282443
Se   5.99261383948   7.72747708575   13.6460282443
Se   19.8468969666   7.72747708575   13.6460282443
Se   14.6515407941   4.72793680083   13.6460282443
Se   11.1879700123   4.72793680083   13.6460282443
Se   7.72439923054   4.72793680083   13.6460282443
Se   4.26082844876   4.72793680083   13.6460282443
Se   18.1151115759   4.72793680083   13.6460282443
Se   12.9197554034   1.72839651590   13.6460282443
Se   9.45618462160   1.72839651590   13.6460282443
Se   5.99261383982   1.72839651590   13.6460282443
Se   2.52904305804   1.72839651590   13.6460282443
Se   16.3833261852   1.72839651590   13.6460282443
Se   18.1151115752   16.7260979405   13.6460282443
Se   14.6515407934   16.7260979405   13.6460282443
Se   11.1879700117   16.7260979405   13.6460282443
Se   7.72439922987   16.7260979405   13.6460282443
Se   21.5786823570   16.7260979405   13.6460282443
Se   21.5775664795   12.7177473516   10.8644375631
Se   18.1139956977   12.7177473516   10.8644375631
Se   14.6504249159   12.7177473516   10.8644375631
Se   11.1868541341   12.7177473516   10.8644375631
Se   7.72328335234   12.7177473516   10.8644375631
Se   19.8457810887   9.71820706669   10.8644375631
Se   16.3822103070   9.71820706669   10.8644375631
Se   12.9186395252   9.71820706669   10.8644375631
Se   9.45506874339   9.71820706669   10.8644375631
Se   5.99149796161   9.71820706669   10.8644375631
Se   18.1139956980   6.71866678177   10.8644375631
Se   14.6504249162   6.71866678177   10.8644375631
Se   11.1868541345   6.71866678177   10.8644375631
Se   7.72328335267   6.71866678177   10.8644375631
Se   4.25971257089   6.71866678177   10.8644375631
Se   16.3822103073   3.71912649685   10.8644375631
Se   12.9186395255   3.71912649685   10.8644375631
Se   9.45506874372   3.71912649685   10.8644375631
Se   5.99149796194   3.71912649685   10.8644375631
Se   2.52792718016   3.71912649685   10.8644375631
Se   14.6504249166  0.719586211922   10.8644375631
Se   11.1868541348  0.719586211922   10.8644375631
Se   7.72328335300  0.719586211922   10.8644375631
Se   4.25971257122  0.719586211922   10.8644375631
Se  0.796141789440  0.719586211922   10.8644375631
Se   19.8457810884   15.7172876365   10.8644375631
Se   16.3822103066   15.7172876365   10.8644375631
Se   12.9186395248   15.7172876365   10.8644375631
Se   9.45506874306   15.7172876365   10.8644375631
Se   23.3093518702   15.7172876365   10.8644375631
Se   19.8464273982   13.7275056999   17.0104680300
Se   16.3828566164   13.7275056999   17.0104680300
Se   12.9192858347   13.7275056999   17.0104680300
Se   9.45571505287   13.7275056999   17.0104680300
Se   5.99214427109   13.7275056999   17.0104680300
Se   18.1146420075   10.7279654149   17.0104680300
Se   14.6510712257   10.7279654149   17.0104680300
Se   11.1875004439   10.7279654149   17.0104680300
Se   7.72392966215   10.7279654149   17.0104680300
Se   4.26035888037   10.7279654149   17.0104680300
Se   16.3828566168   7.72842513002   17.0104680300
Se   12.9192858350   7.72842513002   17.0104680300
Se   9.45571505320   7.72842513002   17.0104680300
Se   5.99214427142   7.72842513002   17.0104680300
Se   19.8464273985   7.72842513002   17.0104680300
Se   14.6510712260   4.72888484509   17.0104680300
Se   11.1875004443   4.72888484509   17.0104680300
Se   7.72392966248   4.72888484509   17.0104680300
Se   4.26035888070   4.72888484509   17.0104680300
Se   18.1146420078   4.72888484509   17.0104680300
Se   12.9192858353   1.72934456017   17.0104680300
Se   9.45571505354   1.72934456017   17.0104680300
Se   5.99214427176   1.72934456017   17.0104680300
Se   2.52857348998   1.72934456017   17.0104680300
Se   16.3828566171   1.72934456017   17.0104680300
Se   18.1146420072   16.7270459848   17.0104680300
Se   14.6510712254   16.7270459848   17.0104680300
Se   11.1875004436   16.7270459848   17.0104680300
Se   7.72392966181   16.7270459848   17.0104680300
Se   21.5782127889   16.7270459848   17.0104680300
Se   7.51141225486   1.71596195371   36.9624158930
Se   11.2898531076   3.35207483640   36.9624158930
Se   15.0682939604   4.98818771908   36.9624158930
Se   14.2811187829  0.897905512367   36.9624158930
Se   18.0595596357   2.53401839505   36.9624158930
Se   4.52014657955   4.17013127774   36.9624158930
Se   8.29858743231   5.80624416042   36.9624158930
Se   12.0770282851   7.44235704311   36.9624158930
Se   15.8554691378   9.07846992579   36.9624158930
Se   18.8467348131   6.62430060177   36.9624158930
Se   5.30732175700   8.26041348445   36.9624158930
Se   9.08576260976   9.89652636714   36.9624158930
Se   12.8642034625   11.5326392498   36.9624158930
Se   16.6426443153   13.1687521325   36.9624158930
Se   19.6339099906   10.7145828085   36.9624158930
Se   6.09449693445   12.3506956912   36.9624158930
Se   9.87293778721   13.9868085739   36.9624158930
Se   13.6513786400   15.6229214565   36.9624158930
Se   17.4298194927   17.2590343392   36.9624158930
Se   20.4210851680   14.8048650152   36.9624158930
Se   6.88167211190   16.4409778979   36.9624158930
Se   3.73297140210 0.0798490710247   36.9624158930
Se   12.0580214808   1.16059135343   33.3248314276
Se   15.8364623336   2.79670423612   33.3248314276
Se   2.29704927744   4.43281711880   33.3248314276
Se   1.50987409999  0.342534912087   33.3248314276
Se   5.28831495275   1.97864779477   33.3248314276
Se   9.06675580551   3.61476067746   33.3248314276
Se   12.8451966583   5.25087356014   33.3248314276
Se   16.6236375110   6.88698644283   33.3248314276
Se   20.4020783638   8.52309932551   33.3248314276
Se   6.07549013021   6.06893000149   33.3248314276
Se   9.85393098297   7.70504288417   33.3248314276
Se   13.6323718357   9.34115576686   33.3248314276
Se   17.4108126885   10.9772686495   33.3248314276
Se   21.1892535413   12.6133815322   33.3248314276
Se   6.86266530766   10.1592122082   33.3248314276
Se   10.6411061604   11.7953250909   33.3248314276
Se   14.4195470132   13.4314379736   33.3248314276
Se   18.1979878659   15.0675508563   33.3248314276
Se   21.9764287187   16.7036637389   33.3248314276
Se   7.64984048511   14.2494944149   33.3248314276
Se   11.4282813379   15.8856072976   33.3248314276
Se   15.2067221906   17.5217201803   33.3248314276
Se   9.79083439755   1.42569311589   29.6913123135
Se   13.5692752503   3.06180599857   29.6913123135
Se   17.3477161031   4.69791888126   29.6913123135
Se   16.5605409256  0.607636674545   29.6913123135
Se   3.02112786948   2.24374955723   29.6913123135
Se   6.79956872224   3.87986243992   29.6913123135
Se   10.5780095750   5.51597532260   29.6913123135
Se   14.3564504278   7.15208820529   29.6913123135
Se   18.1348912805   8.78820108797   29.6913123135
Se   3.80830304693   6.33403176394   29.6913123135
Se   7.58674389969   7.97014464663   29.6913123135
Se   11.3651847525   9.60625752932   29.6913123135
Se   15.1436256052   11.2423704120   29.6913123135
Se   18.9220664580   12.8784832947   29.6913123135
Se   4.59547822438   10.4243139707   29.6913123135
Se   8.37391907714   12.0604268533   29.6913123135
Se   12.1523599299   13.6965397360   29.6913123135
Se   15.9308007827   15.3326526187   29.6913123135
Se   19.7092416354   16.9687655014   29.6913123135
Se   22.7005073107   14.5145961774   29.6913123135
Se   9.16109425459   16.1507090601   29.6913123135
Se   12.9395351074   17.7868219427   29.6913123135
Se   12.0482142887   1.07950412749   26.9245759022
Se   15.8266551415   2.71561701018   26.9245759022
Se   2.28724208533   4.35172989286   26.9245759022
Se   1.50006690788  0.261447686147   26.9245759022
Se   5.27850776064   1.89756056883   26.9245759022
Se   9.05694861340   3.53367345152   26.9245759022
Se   12.8353894662   5.16978633420   26.9245759022
Se   16.6138303189   6.80589921689   26.9245759022
Se   20.3922711717   8.44201209957   26.9245759022
Se   6.06568293809   5.98784277555   26.9245759022
Se   9.84412379085   7.62395565823   26.9245759022
Se   13.6225646436   9.26006854092   26.9245759022
Se   17.4010054964   10.8961814236   26.9245759022
Se   21.1794463491   12.5322943063   26.9245759022
Se   6.85285811554   10.0781249823   26.9245759022
Se   10.6312989683   11.7142378649   26.9245759022
Se   14.4097398211   13.3503507476   26.9245759022
Se   18.1881806738   14.9864636303   26.9245759022
Se   21.9666215266   16.6225765130   26.9245759022
Se   7.64003329299   14.1684071890   26.9245759022
Se   11.4184741458   15.8045200717   26.9245759022
Se   15.1969149985   17.4406329543   26.9245759022
Se   9.77337854692   1.34570647065   23.3067135554
Se   13.5518193997   2.98181935334   23.3067135554
Se   17.3302602524   4.61793223602   23.3067135554
Se   16.5430850750  0.527650029310   23.3067135554
Se   3.00367201885   2.16376291200   23.3067135554
Se   6.78211287161   3.79987579468   23.3067135554
Se   10.5605537244   5.43598867737   23.3067135554
Se   14.3389945771   7.07210156005   23.3067135554
Se   18.1174354299   8.70821444274   23.3067135554
Se   3.79084719630   6.25404511871   23.3067135554
Se   7.56928804906   7.89015800139   23.3067135554
Se   11.3477289018   9.52627088408   23.3067135554
Se   15.1261697546   11.1623837668   23.3067135554
Se   18.9046106074   12.7984966495   23.3067135554
Se   4.57802237375   10.3443273254   23.3067135554
Se   8.35646322651   11.9804402081   23.3067135554
Se   12.1349040793   13.6165530908   23.3067135554
Se   15.9133449320   15.2526659735   23.3067135554
Se   19.6917857848   16.8887788562   23.3067135554
Se   22.6830514601   14.4346095321   23.3067135554
Se   9.14363840396   16.0707224148   23.3067135554
Se   12.9220792567   17.7068352975   23.3067135554
Se   7.50603401081   1.62551877174   19.6835785923
Se   11.2844748636   3.26163165442   19.6835785923
Se   15.0629157163   4.89774453711   19.6835785923
Se   14.2757405389  0.807462330395   19.6835785923
Se   18.0541813916   2.44357521308   19.6835785923
Se   4.51476833550   4.07968809577   19.6835785923
Se   8.29320918826   5.71580097845   19.6835785923
Se   12.0716500410   7.35191386114   19.6835785923
Se   15.8500908938   8.98802674382   19.6835785923
Se   18.8413565691   6.53385741979   19.6835785923
Se   5.30194351295   8.16997030248   19.6835785923
Se   9.08038436571   9.80608318517   19.6835785923
Se   12.8588252185   11.4421960679   19.6835785923
Se   16.6372660712   13.0783089505   19.6835785923
Se   19.6285317465   10.6241396265   19.6835785923
Se   6.08911869040   12.2602525092   19.6835785923
Se   9.86755954316   13.8963653919   19.6835785923
Se   13.6460003959   15.5324782746   19.6835785923
Se   17.4244412487   17.1685911573   19.6835785923
Se   20.4157069240   14.7144218332   19.6835785923
Se   6.87629386785   16.3505347159   19.6835785923
Se   10.6547347206   17.9866475986   19.6835785923
