244
Lattice="   15.0973550    0.00000000    0.00000000    7.54867751    13.0746930    0.00000000    0.00000000    0.00000000    49.9893053"
Nb   6.22625372950   5.37219322094   17.9165893438
Nb   9.05298666883   7.34229449730   17.9095747884
Nb   11.8608255350   9.59702885815   17.8996663453
Nb   8.61267897016   10.8752040738   17.9047558847
Nb   11.4884957295   12.8974433456   17.9149498477
Nb   6.64076570636   1.92870541199   17.8983528959
Nb   9.50329755750   4.00601273870   17.9085691232
Nb   12.1680645621   6.03485400092   17.9111956872
Nb   14.9736568788   8.09804705451   17.9049531146
Nb   17.8691850176   10.1100627332   17.9110868035
Nb   14.5512869386   11.5329181178   17.8969773807
Nb   9.82220508061  0.577530232355   17.8886053359
Nb   12.6446903124   2.60687349819   17.9097127418
Nb   15.3153582998   4.64495836106   17.8964990523
Nb   18.2362875178   6.79654345776   17.8959965854
Nb   5.77966220903   8.79532968796   17.9142219749
Nb   20.5750061121   12.3403204659   17.9148773748
Nb   15.7401181170   1.20160227491   17.9107800128
Nb   3.50448906648   3.34010866615   17.9193853343
Nb   6.19049719878   5.41094904916   11.4982702374
Nb   9.01089423270   7.42915064965   11.5066847664
Nb   11.7610434389   9.52702810544   11.4802123401
Nb   8.71315711164   10.9080166488   11.4896195801
Nb   11.3982895706   12.9062051093   11.4873314142
Nb   6.66372057163   1.88784953753   11.4852958547
Nb   9.50908419775   4.00833275380   11.4840756543
Nb   12.1899957272   5.96322171596   11.4893474614
Nb   15.0771417179   8.13449837612   11.4915248812
Nb   17.7609633847   10.1023480156   11.4907199834
Nb   14.5623908688   11.6014524044   11.4969197657
Nb   9.81864562713  0.524566414018   11.4937732240
Nb   12.5304793100   2.67814939591   11.4846365044
Nb   15.4258092852   4.65908350548   11.4875996950
Nb   18.1612601693   6.81405091732   11.4793170544
Nb   5.84481737551   8.79322495111   11.5097009606
Nb   20.5717916026   12.2007818169   11.4730515956
Nb   15.7871462439   1.23755734882   11.4921668810
Nb   3.44115026488   3.23810323365   11.4879197116
Bi   16.7457428630   6.91813247299   38.3678491594
Bi   12.7052626099   5.89700045828   38.3752361174
Bi   15.6002567863   2.88343216627   38.3602868319
Bi   8.61249346758   4.90137258051   38.3639220961
Bi   11.5328503635   1.87108002307   38.3676254684
Bi   21.9888530240   11.9366781224   38.3730857006
Bi   4.55657562551   3.90032378181   38.3734634413
Bi   7.46151298646  0.877069237710   38.3683682461
Bi   17.9204497687   10.9226245809   38.3623281414
Bi   10.9462255715   12.9301880930   38.3658569437
Bi   13.8535371865   9.93343634305   38.3706916390
Bi   9.77082820313   8.92305555655   38.3614091889
Bi   5.71498409194   7.91399104703   38.3675370513
Bi   18.5068429557   8.58929010893   34.4807201768
Bi   14.4303108539   7.58251222685   34.4815179986
Bi   17.3386361304   4.55550159269   34.4652169985
Bi   10.3691669711   6.57762196537   34.4697454435
Bi   13.2670636731   3.55922923507   34.4755004227
Bi   1.08111520235  0.527351251681   34.4545073350
Bi   6.31055523214   5.57256918880   34.4699092352
Bi   9.21611642959   2.55298521480   34.4651862587
Bi   19.6720411009   12.6132866545   34.4816603666
Bi   5.14544497513   1.54873012423   34.4672290934
Bi   15.6086000402   11.6124248010   34.4512471542
Bi   11.5490170192   10.5942035839   34.4704961120
Bi   7.47914193409   9.58471630136   34.4710862807
Bi   18.5118187465   8.65838931279   28.2929008918
Bi   14.4435887737   7.66530154864   28.2842217853
Bi   17.3577630000   4.62672294249   28.2802059742
Bi   10.3889538178   6.64488514993   28.2946085441
Bi   13.2906163972   3.63212082858   28.2740294485
Bi   1.10508799326  0.613112541673   28.2709496115
Bi   6.32378741448   5.64895092760   28.2904175367
Bi   9.22216248992   2.59374528470   28.2835583190
Bi   19.6851350314   12.6865212955   28.2873965617
Bi   5.16873072529   1.62244251273   28.3091742235
Bi   15.6214912565   11.6543220903   28.2832583208
Bi   11.5584266861   10.6717707374   28.2875757481
Bi   7.48217248271   9.67139492922   28.2947974553
Bi   16.2059078749   9.33093280071   24.4374700338
Bi   12.1223289214   8.33016590011   24.4449768312
Bi   15.0201184676   5.31804499147   24.4554542194
Bi   8.08369965428   7.30725261494   24.4676374611
Bi   10.9699037014   4.30319823260   24.4574425114
Bi   13.8784814523   1.28321024361   24.4212594321
Bi   4.00914418334   6.30762014621   24.4727680585
Bi   6.89734828420   3.29504689207   24.4518609587
Bi   9.81068982898  0.268596956487   24.4629813384
Bi   2.83599492687   2.28597024332   24.4639821722
Bi   13.2889777073   12.3464899017   24.4624898482
Bi   9.23832149907   11.3504585111   24.4509988785
Bi   20.2701909077   10.3223661936   24.4711114460
Se   4.24354880935   5.12416106704   9.81063725806
Se   7.05290419245   7.20588491938   9.79958544348
Se   9.81757321268   9.25287606350   9.77886857201
Se   6.66012129151   10.6018356388   9.80471871770
Se   9.42608752052   12.7017461466   9.77089714694
Se   4.65524159000   1.68309345298   9.79586058057
Se   7.43085616947   3.76280913213   9.83929539454
Se   10.2093475360   5.84856290758   9.78470405420
Se   13.0047596612   7.88445927685   9.84833565771
Se   15.7820285418   9.97019736854   9.79271896166
Se   12.6182537084   11.3319802157   9.78325259630
Se   7.84752722276  0.307193476005   9.77231438681
Se   10.6035243410   2.37173707496   9.77149966128
Se   13.4157415919   4.44637459215   9.77992359811
Se   16.1714379669   6.49363223845   9.78342374408
Se   18.9763024177   8.57836218378   9.76358634085
Se   18.5581096612   12.0195070447   9.80603778499
Se   13.7988277556   1.01727490274   9.82297786799
Se   16.5677256516   3.05899921248   9.76939436502
Se   5.08433463314   6.96602605046   16.1955283619
Se   7.84467633273   9.02517441353   16.2657739882
Se   10.6078488535   11.1130798406   16.2155939438
Se   7.44546524054   12.4778435139   16.1993388120
Se   2.67914014069   1.46933175552   16.2828128913
Se   5.47237302164   3.53044583141   16.2199346414
Se   8.21436378110   5.57365630261   16.2269477742
Se   11.0414470790   7.68560027150   16.2475476228
Se   13.8189158754   9.72356037273   16.1927162172
Se   16.5962651062   11.7689137580   16.2624153298
Se   5.87008555799 0.0994599379726   16.2083796835
Se   8.64176480965   2.17085480689   16.2195024832
Se   11.4310070517   4.20970801022   16.2078156966
Se   14.1828931244   6.29049195591   16.2219446415
Se   16.9690442526   8.33938721570   16.2235115733
Se   19.7918129990   10.4419969244   16.2230291978
Se   11.8226562449  0.785461795999   16.2074798711
Se   14.5946691720   2.83486263004   16.1983913038
Se   17.3640365622   4.91106301652   16.2517575442
Se   4.22979923707   5.13079536926   13.1515237352
Se   7.05307616863   7.19778684109   13.1981049051
Se   9.82269546404   9.26509649244   13.1874994036
Se   6.66456067310   10.6249808114   13.1617884958
Se   9.43282493313   12.7091641381   13.1953053227
Se   4.65710332762   1.68363192068   13.1648264402
Se   7.44441922512   3.75370088619   13.1208090686
Se   10.2124784996   5.83693090008   13.1887491550
Se   13.0076252492   7.88444704004   13.1020766849
Se   15.7868627308   9.97656403171   13.1784352361
Se   12.6101297391   11.3280190704   13.1780785009
Se   7.84636365919  0.319194193508   13.1967443763
Se   10.6109150791   2.37325502127   13.1879140113
Se   13.4250083592   4.43791835055   13.1822562205
Se   16.1816347394   6.48640085333   13.1708904537
Se   18.9617796158   8.56869036696   13.2104749869
Se   18.5728315716   12.0122788635   13.1459658058
Se   13.7940590916   1.00908788652   13.1308582598
Se   16.5766128874   3.06009748914   13.1950364588
Se   5.06330751932   6.96143215458   19.6333653369
Se   7.84928450516   9.02023446433   19.5469780696
Se   10.6095252555   11.1067229524   19.5977053428
Se   7.44847491963   12.4729603267   19.6304060220
Se   2.67040530930   1.46713400465   19.5583464111
Se   5.48491624771   3.51872388180   19.6163016788
Se   8.22197392143   5.57202750571   19.6096781237
Se   11.0427696155   7.69446839838   19.5681049855
Se   13.8185296015   9.72897600448   19.6196696833
Se   16.5986380396   11.7822508209   19.5347548481
Se   5.88728406349 0.0981542619801   19.6104030360
Se   8.64480189481   2.15980006223   19.5723820013
Se   11.4249750737   4.20774184833   19.6254879739
Se   14.1817468683   6.28694170122   19.5939092536
Se   16.9597638985   8.33129211794   19.5911506810
Se   19.7887986876   10.4405008222   19.6197758623
Se   11.8075275796  0.793038710410   19.6060151742
Se   14.5921869937   2.83676645866   19.6187711825
Se   17.3539466012   4.92913133309   19.5360700879
Se   18.5040901885   8.57822515642   39.9240062470
Se   14.4263434230   7.58229217561   39.9334763126
Se   17.3342148836   4.54845438047   39.9175374166
Se   10.3684516772   6.58006935050   39.9012130364
Se   13.2782570734   3.54408801167   39.9253126730
Se   1.07575810241  0.545115311981   39.9246578472
Se   6.30877046216   5.58749108360   39.9349615411
Se   9.20395121402   2.55030424674   39.9162598335
Se   19.6721354379   12.6019953018   39.9180248732
Se   5.14695435592   1.54130431905   39.9096952408
Se   15.5897436880   11.5981362539   39.9208682644
Se   11.5345526052   10.5836130028   39.9189669746
Se   7.45837939077   9.59479649669   39.9299432905
Se   16.2042049780   9.24423460682   36.4232889949
Se   12.1048712576   8.23887533607   36.4034362247
Se   15.0227124537   5.23938830877   36.4084656662
Se   8.05742481724   7.24998009752   36.4096392678
Se   10.9503246490   4.23324050639   36.4054407188
Se   13.8593208922   1.21039799655   36.3984630362
Se   3.97687039115   6.25053933790   36.4170234660
Se   6.89501904816   3.19909849761   36.4062616703
Se   9.81951157527  0.185320063941   36.4118009266
Se   2.84969903616   2.21827339416   36.4182467796
Se   13.2653174122   12.2628245257   36.4224260036
Se   9.22592717041   11.2775427343   36.3958639686
Se   20.2396820909   10.2680497319   36.4207294326
Se   16.7664057342   6.91220952862   32.9249688412
Se   12.6912383403   5.91623830350   32.9123278097
Se   15.5968470606   2.89057491849   32.9041044721
Se   8.62418789674   4.89017617826   32.8979441730
Se   11.5473237729   1.88497417443   32.9027321704
Se   6.90445092264   11.9242446231   32.9012728863
Se   4.57560803051   3.90362837254   32.9026835147
Se   7.47400082180  0.870733242677   32.8906491168
Se   17.9260145270   10.9356695688   32.9040531160
Se   10.9592313412   12.9427008830   32.9050881959
Se   13.8738746215   9.92910683738   32.8990958255
Se   9.78902829325   8.92621311045   32.9040559634
Se   5.74109264434   7.91137028231   32.9015770752
Se   16.2084656459   9.32774493776   29.8576018098
Se   12.1283517262   8.32923057938   29.8582881822
Se   15.0278268235   5.31223831861   29.8197262081
Se   8.07329516121   7.32194016793   29.8489205286
Se   10.9645043642   4.29617798915   29.8282331036
Se   13.8757736110   1.28378723533   29.8339619266
Se   3.99291476854   6.32215589735   29.8417333140
Se   6.91071393782   3.29404416147   29.8520927440
Se   9.81745811445  0.259674426564   29.8470171854
Se   2.84982251339   2.28109418334   29.8539657789
Se   13.2962123060   12.3528347714   29.8451521519
Se   9.22245624901   11.3490100900   29.8292566738
Se   20.2598490464   10.3474015490   29.8490091639
Se   16.7805841258   6.99009872243   26.3752817541
Se   12.7253782697   5.99867645060   26.3857908496
Se   15.6147296091   2.96507456040   26.3567134310
Se   8.65217754020   4.98252127514   26.3767708777
Se   11.5495018957   1.95065106702   26.3629928026
Se   22.0187219831   12.0205912307   26.3624371761
Se   4.58107856048   3.97457989510   26.3734019928
Se   7.50075355011  0.938786764298   26.3655075023
Se   17.9119997596   11.0138810889   26.3770081913
Se   10.9733706103   13.0231833437   26.3889616113
Se   13.8645346917   10.0082208099   26.3619687839
Se   9.81186129035   9.01564276956   26.3639425463
Se   5.74563941414   7.97505401880   26.3838388434
Se   18.5353543106   8.65579747496   22.9015373760
Se   14.4491723781   7.67001355555   22.9044325938
Se   17.3495389331   4.62735447570   22.9400683198
Se   10.3852149702   6.63396030702   22.8945725804
Se   13.2786448523   3.64900859498   22.8869436087
Se   1.11030936582  0.623919917530   22.8854153684
Se   6.33163535010   5.64725614766   22.9135295190
Se   9.23341590026   2.64343315656   22.9270778026
Se   19.6883921811   12.6495921847   22.9123854429
Se   5.15879295612   1.62484180411   22.9028198297
Se   15.5926969062   11.6807139296   22.9101300245
Se   11.5737754760   10.6694526766   22.8976636480
Se   7.48340363717   9.67742695774   22.9279349690
