402
Lattice="   15.0973550    0.00000000  9.00000000e-16    5.56218343    22.0205355  1.40000000e-15    0.00000000    0.00000000    44.4624159"
Nb   8.10495009456   1.66096795483   15.3283309269
Nb   11.2833406254   3.03725142627   15.3283309269
Nb   14.4617311563   4.41353489772   15.3283309269
Nb   14.0644323401  0.972826219104   15.3283309269
Nb   2.14546784901   2.34910969055   15.3283309269
Nb   5.32385837987   3.72539316200   15.3283309269
Nb   8.50224891072   5.10167663344   15.3283309269
Nb   11.6806394416   6.47796010489   15.3283309269
Nb   14.8590299724   7.85424357633   15.3283309269
Nb   2.54276666517   5.78981836916   15.3283309269
Nb   5.72115719602   7.16610184061   15.3283309269
Nb   8.89954772688   8.54238531205   15.3283309269
Nb   12.0779382577   9.91866878350   15.3283309269
Nb   15.2563287886   11.2949522549   15.3283309269
Nb   2.94006548132   9.23052704778   15.3283309269
Nb   6.11845601218   10.6068105192   15.3283309269
Nb   9.29684654304   11.9830939907   15.3283309269
Nb   12.4752370739   13.3593774621   15.3283309269
Nb   15.6536276047   14.7356609336   15.3283309269
Nb   3.33736429748   12.6712357264   15.3283309269
Nb   6.51575482834   14.0475191978   15.3283309269
Nb   9.69414535919   15.4238026693   15.3283309269
Nb   12.8725358901   16.8000861407   15.3283309269
Nb   16.0509264209   18.1763696122   15.3283309269
Nb   18.8320181356   16.1119444050   15.3283309269
Nb   6.91305364449   17.4882278765   15.3283309269
Nb   10.0914441754   18.8645113479   15.3283309269
Nb   13.2698347062   20.2407948193   15.3283309269
Nb   16.4482252371   21.6170782908   15.3283309269
Nb   19.2293169518   19.5526530836   15.3283309269
Nb   7.31035246065   20.9289365551   15.3283309269
Nb   4.92655956371  0.284684483382   15.3283309269
Nb   8.10197530549   1.67031136094   9.18208868332
Nb   11.2803658364   3.04659483238   9.18208868332
Nb   14.4587563672   4.42287830383   9.18208868332
Nb   14.0614575511  0.982169625213   9.18208868332
Nb   2.14249305994   2.35845309666   9.18208868332
Nb   5.32088359080   3.73473656810   9.18208868332
Nb   8.49927412165   5.11102003955   9.18208868332
Nb   11.6776646525   6.48730351099   9.18208868332
Nb   14.8560551834   7.86358698244   9.18208868332
Nb   2.53979187610   5.79916177527   9.18208868332
Nb   5.71818240695   7.17544524672   9.18208868332
Nb   8.89657293781   8.55172871816   9.18208868332
Nb   12.0749634687   9.92801218961   9.18208868332
Nb   15.2533539995   11.3042956611   9.18208868332
Nb   2.93709069225   9.23987045388   9.18208868332
Nb   6.11548122311   10.6161539253   9.18208868332
Nb   9.29387175396   11.9924373968   9.18208868332
Nb   12.4722622848   13.3687208682   9.18208868332
Nb   15.6506528157   14.7450043397   9.18208868332
Nb   3.33438950841   12.6805791325   9.18208868332
Nb   6.51278003927   14.0568626039   9.18208868332
Nb   9.69117057012   15.4331460754   9.18208868332
Nb   12.8695611010   16.8094295468   9.18208868332
Nb   16.0479516318   18.1857130183   9.18208868332
Nb   18.8290433465   16.1212878111   9.18208868332
Nb   6.91007885542   17.4975712826   9.18208868332
Nb   10.0884693863   18.8738547540   9.18208868332
Nb   13.2668599171   20.2501382255   9.18208868332
Nb   16.4452504480   21.6264216969   9.18208868332
Nb   19.2263421627   19.5619964897   9.18208868332
Nb   7.30737767158   20.9382799612   9.18208868332
Nb   4.92358477464  0.294027889491   9.18208868332
Bi   9.02177482746   1.28867928041   35.3209507183
Bi   11.9731374631   4.43447007228   35.3209507183
Bi   4.97311069870   2.33727621103   35.3209507183
Bi   7.92447333438   5.48306700291   35.3209507183
Bi   10.8758359701   8.62885779478   35.3209507183
Bi   13.8271986057   11.7746485867   35.3209507183
Bi   13.0704389562  0.240082349781   35.3209507183
Bi  0.924446569937   3.38587314166   35.3209507183
Bi   3.87580920562   6.53166393353   35.3209507183
Bi   6.82717184130   9.67745472541   35.3209507183
Bi   9.77853447698   12.8232455173   35.3209507183
Bi   12.7298971127   15.9690363092   35.3209507183
Bi   15.6812597483   19.1148271010   35.3209507183
Bi   14.9245000988   7.58026086416   35.3209507183
Bi   2.77850771254   10.7260516560   35.3209507183
Bi   5.72987034821   13.8718424479   35.3209507183
Bi   8.68123298389   17.0176332398   35.3209507183
Bi   11.6325956196   20.1634240316   35.3209507183
Bi   16.7785612414   14.9204393785   35.3209507183
Bi   4.63256885513   18.0662301704   35.3209507183
Bi   7.58393149081   21.2120209623   35.3209507183
Bi   6.71977004294  0.571825791342   31.3343077101
Bi   9.67113267862   3.71761658322   31.3343077101
Bi   2.67110591418   1.62042272197   31.3343077101
Bi   5.62246854986   4.76621351384   31.3343077101
Bi   8.57383118554   7.91200430572   31.3343077101
Bi   11.5251938212   11.0577950976   31.3343077101
Bi   16.3306175995   21.5437644038   31.3343077101
Bi   13.7197968074   2.66901965259   31.3343077101
Bi   1.57380442110   5.81481044447   31.3343077101
Bi   4.52516705678   8.96060123634   31.3343077101
Bi   7.47652969246   12.1063920282   31.3343077101
Bi   10.4278923281   15.2521828201   31.3343077101
Bi   13.3792549638   18.3979736120   31.3343077101
Bi   12.6224953143   6.86340737509   31.3343077101
Bi   15.5738579500   10.0091981670   31.3343077101
Bi   3.42786556370   13.1549889588   31.3343077101
Bi   6.37922819938   16.3007797507   31.3343077101
Bi   9.33059083506   19.4465705426   31.3343077101
Bi   14.4765564569   14.2035858895   31.3343077101
Bi   17.4279190926   17.3493766813   31.3343077101
Bi   5.28192670629   20.4951674732   31.3343077101
Bi   6.72020043201  0.500742192737   25.2928290677
Bi   9.67156306769   3.64653298461   25.2928290677
Bi   2.67153630325   1.54933912336   25.2928290677
Bi   5.62289893893   4.69512991524   25.2928290677
Bi   8.57426157461   7.84092070711   25.2928290677
Bi   11.5256242103   10.9867114990   25.2928290677
Bi   16.3310479886   21.4726808052   25.2928290677
Bi   13.7202271965   2.59793605399   25.2928290677
Bi   1.57423481017   5.74372684586   25.2928290677
Bi   4.52559744585   8.88951763774   25.2928290677
Bi   7.47696008153   12.0353084296   25.2928290677
Bi   10.4283227172   15.1810992215   25.2928290677
Bi   13.3796853529   18.3268900134   25.2928290677
Bi   12.6229257034   6.79232377649   25.2928290677
Bi   15.5742883391   9.93811456836   25.2928290677
Bi   3.42829595276   13.0839053602   25.2928290677
Bi   6.37965858844   16.2296961521   25.2928290677
Bi   9.33102122412   19.3754869440   25.2928290677
Bi   14.4769868460   14.1325022909   25.2928290677
Bi   17.4283494816   17.2782930827   25.2928290677
Bi   5.28235709536   20.4240838746   25.2928290677
Bi   11.4081309080   1.90344807529   21.3211086462
Bi   14.3594935437   5.04923886717   21.3211086462
Bi   7.35946677928   2.95204500592   21.3211086462
Bi   10.3108294150   6.09783579779   21.3211086462
Bi   13.2621920506   9.24362658967   21.3211086462
Bi   16.2135546863   12.3894173815   21.3211086462
Bi  0.359440014841  0.854851144669   21.3211086462
Bi   3.31080265052   4.00064193654   21.3211086462
Bi   6.26216528620   7.14643272842   21.3211086462
Bi   9.21352792188   10.2922235203   21.3211086462
Bi   12.1648905576   13.4380143122   21.3211086462
Bi   15.1162531932   16.5838051040   21.3211086462
Bi   18.0676158289   19.7295958959   21.3211086462
Bi   2.21350115744   8.19502965904   21.3211086462
Bi   5.16486379312   11.3408204509   21.3211086462
Bi   8.11622642880   14.4866112428   21.3211086462
Bi   11.0675890645   17.6324020347   21.3211086462
Bi   14.0189517002   20.7781928265   21.3211086462
Bi   4.06756230004   15.5352081734   21.3211086462
Bi   7.01892493572   18.6809989653   21.3211086462
Bi   9.97028757140   21.8267897572   21.3211086462
Se   6.90953523785 0.0647961384134   7.50000000000
Se   10.0879257687   1.44107960986   7.50000000000
Se   13.2663162996   2.81736308130   7.50000000000
Se   18.4312009112   21.3971899458   7.50000000000
Se  0.950052992295  0.752937874136   7.50000000000
Se   4.12844352315   2.12922134558   7.50000000000
Se   7.30683405401   3.50550481703   7.50000000000
Se   10.4852245849   4.88178828847   7.50000000000
Se   13.6636151157   6.25807175992   7.50000000000
Se   1.34735180845   4.19364655275   7.50000000000
Se   4.52574233931   5.56993002419   7.50000000000
Se   7.70413287016   6.94621349564   7.50000000000
Se   10.8825234010   8.32249696709   7.50000000000
Se   14.0609139319   9.69878043853   7.50000000000
Se   16.8420056466   7.63435523136   7.50000000000
Se   4.92304115546   9.01063870281   7.50000000000
Se   8.10143168632   10.3869221743   7.50000000000
Se   11.2798222172   11.7632056457   7.50000000000
Se   14.4582127480   13.1394891171   7.50000000000
Se   17.2393044627   11.0750639100   7.50000000000
Se   5.32033997162   12.4513473814   7.50000000000
Se   8.49873050248   13.8276308529   7.50000000000
Se   11.6771210333   15.2039143243   7.50000000000
Se   14.8555115642   16.5801977958   7.50000000000
Se   17.6366032789   14.5157725886   7.50000000000
Se   5.71763878778   15.8920560600   7.50000000000
Se   8.89602931863   17.2683395315   7.50000000000
Se   12.0744198495   18.6446230029   7.50000000000
Se   15.2528103803   20.0209064744   7.50000000000
Se   18.0339020950   17.9564812672   7.50000000000
Se   6.11493760393   19.3327647386   7.50000000000
Se   9.29332813479   20.7090482101   7.50000000000
Se   14.4614423730   21.8464578678   13.6460282443
Se   12.0776494760   1.20220579614   13.6460282443
Se   15.2560400069   2.57848926758   13.6460282443
Se   20.4209246185   21.1583161321   13.6460282443
Se   2.93977669962  0.514064060416   13.6460282443
Se   6.11816723047   1.89034753186   13.6460282443
Se   9.29655776133   3.26663100331   13.6460282443
Se   12.4749482922   4.64291447475   13.6460282443
Se   15.6533388230   6.01919794620   13.6460282443
Se   3.33707551577   3.95477273903   13.6460282443
Se   6.51546604663   5.33105621047   13.6460282443
Se   9.69385657748   6.70733968192   13.6460282443
Se   12.8722471083   8.08362315336   13.6460282443
Se   16.0506376392   9.45990662481   13.6460282443
Se   3.73437433193   7.39548141764   13.6460282443
Se   6.91276486278   8.77176488909   13.6460282443
Se   10.0911553936   10.1480483605   13.6460282443
Se   13.2695459245   11.5243318320   13.6460282443
Se   16.4479364554   12.9006153034   13.6460282443
Se   4.13167314809   10.8361900963   13.6460282443
Se   7.31006367894   12.2124735677   13.6460282443
Se   10.4884542098   13.5887570391   13.6460282443
Se   13.6668447407   14.9650405106   13.6460282443
Se   16.8452352715   16.3413239820   13.6460282443
Se   4.52897196424   14.2768987749   13.6460282443
Se   7.70736249510   15.6531822463   13.6460282443
Se   10.8857530260   17.0294657178   13.6460282443
Se   14.0641435568   18.4057491892   13.6460282443
Se   17.2425340877   19.7820326606   13.6460282443
Se   4.92627078040   17.7176074535   13.6460282443
Se   8.10466131125   19.0938909249   13.6460282443
Se   11.2830518421   20.4701743964   13.6460282443
Se   6.91022711242 0.0639718187041   10.8644375631
Se   10.0886176433   1.44025529015   10.8644375631
Se   13.2670081741   2.81653876159   10.8644375631
Se   18.4318927858   21.3963656261   10.8644375631
Se  0.950744866867  0.752113554427   10.8644375631
Se   4.12913539772   2.12839702587   10.8644375631
Se   7.30752592858   3.50468049732   10.8644375631
Se   10.4859164594   4.88096396876   10.8644375631
Se   13.6643069903   6.25724744021   10.8644375631
Se   1.34804368302   4.19282223304   10.8644375631
Se   4.52643421388   5.56910570449   10.8644375631
Se   7.70482474473   6.94538917593   10.8644375631
Se   10.8832152756   8.32167264737   10.8644375631
Se   14.0616058064   9.69795611882   10.8644375631
Se   16.8426975211   7.63353091165   10.8644375631
Se   4.92373303004   9.00981438310   10.8644375631
Se   8.10212356089   10.3860978545   10.8644375631
Se   11.2805140917   11.7623813260   10.8644375631
Se   14.4589046226   13.1386647974   10.8644375631
Se   17.2399963373   11.0742395903   10.8644375631
Se   5.32103184619   12.4505230617   10.8644375631
Se   8.49942237705   13.8268065332   10.8644375631
Se   11.6778129079   15.2030900046   10.8644375631
Se   14.8562034388   16.5793734761   10.8644375631
Se   17.6372951535   14.5149482689   10.8644375631
Se   5.71833066235   15.8912317403   10.8644375631
Se   8.89672119320   17.2675152118   10.8644375631
Se   12.0751117241   18.6437986832   10.8644375631
Se   15.2535022549   20.0200821547   10.8644375631
Se   18.0345939696   17.9556569475   10.8644375631
Se   6.11562947851   19.3319404189   10.8644375631
Se   9.29402000936   20.7082238904   10.8644375631
Se   14.4622499928   21.8457744702   17.0104680300
Se   12.0784570958   1.20152239848   17.0104680300
Se   15.2568476267   2.57780586993   17.0104680300
Se   20.4217322383   21.1576327344   17.0104680300
Se   2.94058431941  0.513380662759   17.0104680300
Se   6.11897485027   1.88966413421   17.0104680300
Se   9.29736538112   3.26594760565   17.0104680300
Se   12.4757559120   4.64223107710   17.0104680300
Se   15.6541464428   6.01851454854   17.0104680300
Se   3.33788313557   3.95408934137   17.0104680300
Se   6.51627366642   5.33037281282   17.0104680300
Se   9.69466419728   6.70665628426   17.0104680300
Se   12.8730547281   8.08293975571   17.0104680300
Se   16.0514452590   9.45922322715   17.0104680300
Se   3.73518195172   7.39479801999   17.0104680300
Se   6.91357248258   8.77108149143   17.0104680300
Se   10.0919630134   10.1473649629   17.0104680300
Se   13.2703535443   11.5236484343   17.0104680300
Se   16.4487440751   12.8999319058   17.0104680300
Se   4.13248076788   10.8355066986   17.0104680300
Se   7.31087129874   12.2117901700   17.0104680300
Se   10.4892618296   13.5880736415   17.0104680300
Se   13.6676523605   14.9643571129   17.0104680300
Se   16.8460428913   16.3406405844   17.0104680300
Se   4.52977958404   14.2762153772   17.0104680300
Se   7.70817011489   15.6524988487   17.0104680300
Se   10.8865606458   17.0287823201   17.0104680300
Se   14.0649511766   18.4050657916   17.0104680300
Se   17.2433417075   19.7813492630   17.0104680300
Se   4.92707840019   17.7169240558   17.0104680300
Se   8.10546893105   19.0932075273   17.0104680300
Se   11.2838594619   20.4694909987   17.0104680300
Se   6.67685479415  0.585617782218   36.9624158930
Se   9.62821742983   3.73140857409   36.9624158930
Se   2.62819066539   1.63421471284   36.9624158930
Se   5.57955330107   4.78000550472   36.9624158930
Se   8.53091593675   7.92579629659   36.9624158930
Se   11.4822785724   11.0715870885   36.9624158930
Se   16.2877023507   21.5575563947   36.9624158930
Se   13.6768815586   2.68281164347   36.9624158930
Se   1.53088917231   5.82860243534   36.9624158930
Se   4.48225180799   8.97439322722   36.9624158930
Se   7.43361444367   12.1201840191   36.9624158930
Se   10.3849770793   15.2659748110   36.9624158930
Se   13.3363397150   18.4117656028   36.9624158930
Se   12.5795800655   6.87719936597   36.9624158930
Se   15.5309427012   10.0229901578   36.9624158930
Se   3.38495031491   13.1687809497   36.9624158930
Se   6.33631295059   16.3145717416   36.9624158930
Se   9.28767558627   19.4603625335   36.9624158930
Se   14.4336412081   14.2173778803   36.9624158930
Se   17.3850038438   17.3631686722   36.9624158930
Se   5.23901145751   20.5089594641   36.9624158930
Se   11.3808689204   1.98849546900   33.3248314276
Se   14.3322315561   5.13428626087   33.3248314276
Se   7.33220479166   3.03709239962   33.3248314276
Se   10.2835674273   6.18288319150   33.3248314276
Se   13.2349300630   9.32867398337   33.3248314276
Se   16.1862926987   12.4744647753   33.3248314276
Se  0.332178027219  0.939898538373   33.3248314276
Se   3.28354066290   4.08568933025   33.3248314276
Se   6.23490329858   7.23148012212   33.3248314276
Se   9.18626593426   10.3772709140   33.3248314276
Se   12.1376285699   13.5230617059   33.3248314276
Se   15.0889912056   16.6688524977   33.3248314276
Se   18.0403538413   19.8146432896   33.3248314276
Se   2.18623916982   8.28007705275   33.3248314276
Se   5.13760180550   11.4258678446   33.3248314276
Se   8.08896444118   14.5716586365   33.3248314276
Se   11.0403270769   17.7174494284   33.3248314276
Se   13.9916897125   20.8632402203   33.3248314276
Se   4.04030031242   15.6202555671   33.3248314276
Se   6.99166294809   18.7660463590   33.3248314276
Se   9.94302558378   21.9118371509   33.3248314276
Se   9.04059619397   1.27777216958   29.6913123135
Se   11.9919588297   4.42356296145   29.6913123135
Se   4.99193206521   2.32636910020   29.6913123135
Se   7.94329470089   5.47215989208   29.6913123135
Se   10.8946573366   8.61795068395   29.6913123135
Se   13.8460199723   11.7637414758   29.6913123135
Se   13.0892603227  0.229175238954   29.6913123135
Se  0.943267936451   3.37496603083   29.6913123135
Se   3.89463057213   6.52075682270   29.6913123135
Se   6.84599320781   9.66654761458   29.6913123135
Se   9.79735584349   12.8123384064   29.6913123135
Se   12.7487184792   15.9581291983   29.6913123135
Se   15.7000811149   19.1039199902   29.6913123135
Se   14.9433214653   7.56935375333   29.6913123135
Se   2.79732907905   10.7151445452   29.6913123135
Se   5.74869171473   13.8609353371   29.6913123135
Se   8.70005435041   17.0067261289   29.6913123135
Se   11.6514169861   20.1525169208   29.6913123135
Se   16.7973826079   14.9095322677   29.6913123135
Se   4.65139022165   18.0553230596   29.6913123135
Se   7.60275285733   21.2011138515   29.6913123135
Se   11.4082975877   1.90780192416   26.9245759022
Se   14.3596602234   5.05359271604   26.9245759022
Se   7.35963345892   2.95639885479   26.9245759022
Se   10.3109960946   6.10218964667   26.9245759022
Se   13.2623587303   9.24798043854   26.9245759022
Se   16.2137213660   12.3937712304   26.9245759022
Se  0.359606694476  0.859204993540   26.9245759022
Se   3.31096933016   4.00499578542   26.9245759022
Se   6.26233196584   7.15078657729   26.9245759022
Se   9.21369460151   10.2965773692   26.9245759022
Se   12.1650572372   13.4423681610   26.9245759022
Se   15.1164198729   16.5881589529   26.9245759022
Se   18.0677825086   19.7339497448   26.9245759022
Se   2.21366783708   8.19938350791   26.9245759022
Se   5.16503047275   11.3451742998   26.9245759022
Se   8.11639310843   14.4909650917   26.9245759022
Se   11.0677557441   17.6367558835   26.9245759022
Se   14.0191183798   20.7825466754   26.9245759022
Se   4.06772897967   15.5395620223   26.9245759022
Se   7.01909161535   18.6853528142   26.9245759022
Se   9.97045425103   21.8311436060   26.9245759022
Se   9.06003546648   1.19487555631   23.3067135554
Se   12.0113981022   4.34066634818   23.3067135554
Se   5.01137133772   2.24347248693   23.3067135554
Se   7.96273397340   5.38926327881   23.3067135554
Se   10.9140966091   8.53505407068   23.3067135554
Se   13.8654592448   11.6808448626   23.3067135554
Se   13.1086995952  0.146278625684   23.3067135554
Se  0.962707208955   3.29206941756   23.3067135554
Se   3.91406984464   6.43786020943   23.3067135554
Se   6.86543248031   9.58365100131   23.3067135554
Se   9.81679511599   12.7294417932   23.3067135554
Se   12.7681577517   15.8752325851   23.3067135554
Se   15.7195203874   19.0210233769   23.3067135554
Se   14.9627607378   7.48645714006   23.3067135554
Se   2.81676835155   10.6322479319   23.3067135554
Se   5.76813098723   13.7780387238   23.3067135554
Se   8.71949362291   16.9238295157   23.3067135554
Se   11.6708562586   20.0696203076   23.3067135554
Se   16.8168218804   14.8266356544   23.3067135554
Se   4.67082949415   17.9724264463   23.3067135554
Se   7.62219212983   21.1182172382   23.3067135554
Se   6.71289107639  0.497970531254   19.6835785923
Se   9.66425371207   3.64376132313   19.6835785923
Se   2.66422694763   1.54656746188   19.6835785923
Se   5.61558958330   4.69235825375   19.6835785923
Se   8.56695221898   7.83814904563   19.6835785923
Se   11.5183148547   10.9839398375   19.6835785923
Se   16.3237386329   21.4699091438   19.6835785923
Se   13.7129178408   2.59516439250   19.6835785923
Se   1.56692545454   5.74095518438   19.6835785923
Se   4.51828809022   8.88674597625   19.6835785923
Se   7.46965072590   12.0325367681   19.6835785923
Se   10.4210133616   15.1783275600   19.6835785923
Se   13.3723759973   18.3241183519   19.6835785923
Se   12.6156163478   6.78955211500   19.6835785923
Se   15.5669789834   9.93534290688   19.6835785923
Se   3.42098659714   13.0811336988   19.6835785923
Se   6.37234923282   16.2269244906   19.6835785923
Se   9.32371186850   19.3727152825   19.6835785923
Se   14.4696774903   14.1297306294   19.6835785923
Se   17.4210401260   17.2755214213   19.6835785923
Se   5.27504773974   20.4213122131   19.6835785923
