488
Lattice="   15.0974269    0.00000000    0.00000000    0.00000000    26.1492938    0.00000000    0.00000000    0.00000000    49.9892580"
Nb   11.0340879165   3.33495006141   17.9232278438
Nb   10.5945336296   6.71123406904   17.9043176919
Nb   10.2334272593   10.2137624546   17.8719049341
Nb   9.82032449447   13.5860331863   17.8910505173
Nb   9.42948540560   17.1096014205   17.9315389197
Nb   9.00683366890   20.4586271364   17.9361024468
Nb   8.64262392697   23.9384837230   17.9174394431
Nb   8.21245474483   1.19236929427   17.9143533028
Nb   7.81604086921   4.70792864467   17.9262917326
Nb   7.38591204504   8.06773731923   17.9178683964
Nb   7.03305196399   11.5814581901   17.9021030410
Nb   6.58814046572   14.9917386937   17.9205601565
Nb   6.22523529900   18.4778704836   17.9234469358
Nb   5.81076895124   21.8200770051   17.8922046955
Nb   5.45402356348   25.3435190834   17.8762237851
Nb   5.01592881471   2.60407067881   17.9128885312
Nb   4.66709375313   6.09718300642   17.9350169338
Nb   4.24494819890   9.44623122659   17.9211780257
Nb   3.87870514796   12.9923291967   17.9138251609
Nb   3.47101289945   16.3524866203   17.9197357999
Nb   3.08266320914   19.8258615865   17.9006912980
Nb   2.66252453238   23.2186799920   17.8698451706
Nb   2.28772967355  0.600588337498   17.8844802896
Nb   1.87152289344   3.94459745069   17.9232833917
Nb   1.48198782697   7.43999107690   17.9229382682
Nb   1.04317327624   10.8216699498   17.9032594662
Nb  0.681773763107   14.3277650458   17.9069528508
Nb  0.243915436602   17.7042979009   17.9253703473
Nb   14.9523847475   21.2051845608   17.9145526176
Nb   14.5262439260   24.6145884427   17.9016008487
Nb   14.1896823999   1.95561158076   17.9178188816
Nb   13.7540764224   5.32257571208   17.9187318175
Nb   13.3878269710   8.84738884040   17.8860937572
Nb   12.9780939618   12.2055346014   17.8765377815
Nb   12.6211610866   15.7240635109   17.9103181135
Nb   12.1767634671   19.1144651341   17.9393203293
Nb   11.8172783675   22.6196352458   17.9348428870
Nb   11.4191932809   25.9678178180   17.9279864430
Nb   10.9812367037   3.34802572858   11.4794547997
Nb   10.5777333842   6.71248794231   11.4810344217
Nb   10.2412447086   10.1921232583   11.4796278015
Nb   9.80827122759   13.6278933634   11.4774413166
Nb   9.40144189709   17.0573927140   11.4782963698
Nb   9.06814611374   20.5338065865   11.4795189057
Nb   8.65672820062   23.9396013556   11.4899213243
Nb   8.23826052895   1.23927316911   11.4877525182
Nb   7.86839153255   4.73041485744   11.4816622176
Nb   7.45179131944   8.10064124681   11.4852245152
Nb   7.05832980941   11.6079632531   11.4827044752
Nb   6.63293465923   15.0587831835   11.4794738297
Nb   6.24990846032   18.4253388121   11.4784279804
Nb   5.86774967128   21.9223558062   11.4803249542
Nb   5.42645025620   25.3651453457   11.4891027959
Nb   5.03833326117   2.58977538053   11.4798733823
Nb   4.66589591814   6.08444400632   11.4758225410
Nb   4.21712488177   9.48930388994   11.4761404762
Nb   3.81729376071   12.9629344477   11.4752411242
Nb   3.44857068690   16.3815246005   11.4779917192
Nb   3.04184298139   19.7741020637   11.4782267842
Nb   2.64841005249   23.2956561633   11.4800214688
Nb   2.26868098788  0.554391450924   11.4742711153
Nb   1.87884613982   3.93023502391   11.4661316755
Nb   1.49497919325   7.47989306226   11.4666811753
Nb   1.06865224908   10.8739181798   11.4707549556
Nb  0.716840349996   14.2980120896   11.4775138576
Nb  0.319833056364   17.7886547673   11.4748543924
Nb   14.9820834348   21.2133184601   11.4758526263
Nb   14.6278166860   24.6501099572   11.4732069837
Nb   14.2352356030   1.94854423839   11.4632743433
Nb   13.7836753061   5.37642924495   11.4707958558
Nb   13.3881531451   8.87544533074   11.4714069280
Nb   12.9847102057   12.2334350590   11.4768020407
Nb   12.5789758296   15.6820452740   11.4730701244
Nb   12.1637529029   19.1988227952   11.4728052900
Nb   11.7757324603   22.5526376268   11.4786656117
Nb   11.4063840809   25.9789560380   11.4799561179
Bi   1.64841368942  0.837821231670   38.3762689069
Bi   4.54913053317   3.86436949911   38.3739411816
Bi   8.61431199437   2.84709833720   38.3766617480
Bi   12.6821664513   1.84864414663   38.3669988507
Bi   3.38785077360   7.88090764333   38.3714421296
Bi   7.45667778271   6.86684782378   38.3789197226
Bi   11.5237742418   5.86690178946   38.3770374701
Bi  0.489799668118   4.86224102676   38.3663431247
Bi   2.22572979333   11.8992208714   38.3728513114
Bi   6.29041332553   10.8953145527   38.3731920835
Bi   10.3574807035   9.88892326708   38.3685756345
Bi   14.4222925417   8.88224113262   38.3721378141
Bi   5.13016815276   14.9195002655   38.3816777296
Bi   9.19406309929   13.9082622290   38.3813109515
Bi   13.2625709542   12.8966402185   38.3800459949
Bi   3.96616275079   18.9427381504   38.3961431509
Bi   8.03595129413   17.9378275714   38.3943447346
Bi   12.1042226219   16.9306308635   38.3925945409
Bi   1.06723047142   15.9170187415   38.3777604443
Bi   2.80929147103   22.9611851236   38.3873469295
Bi   6.87881661595   21.9582298788   38.3807566780
Bi   10.9391637817   20.9548242067   38.3945111036
Bi   15.0049055301   19.9492436042   38.3884630882
Bi   5.71074952565   25.9818992785   38.3816255701
Bi   9.77641536245   24.9733708465   38.3817332916
Bi   13.8432089932   23.9734962180   38.3808773946
Bi   1.06550369810   24.6301823861   34.4701289336
Bi   3.96673518736   1.49882823499   34.4742873524
Bi   8.03276025136  0.494830652563   34.4710137309
Bi   12.0970666677   25.6375234833   34.4804977686
Bi   2.80772210369   5.52672538998   34.4633215749
Bi   6.87167340893   4.51671434149   34.4745109308
Bi   10.9374637316   3.51251241790   34.4712163453
Bi   15.0017068004   2.50534404776   34.4694172327
Bi   1.64808621647   9.54955827902   34.4640455214
Bi   5.70720931398   8.54149856016   34.4656417753
Bi   9.76988901020   7.53848332566   34.4730343451
Bi   13.8411148350   6.53336162239   34.4636093495
Bi   4.54766406833   12.5680014066   34.4638680168
Bi   8.60835385608   11.5601429172   34.4703809035
Bi   12.6753332870   10.5553323874   34.4682062938
Bi   3.39241322528   16.5928136200   34.4777891552
Bi   7.45384098971   15.5913906926   34.4810181952
Bi   11.5152152841   14.5790395862   34.4753352674
Bi  0.481353993892   13.5746505682   34.4715539992
Bi   2.22905389110   20.6119367234   34.4772850067
Bi   6.29160153002   19.6076558678   34.4877591998
Bi   10.3587760540   18.5998254325   34.4818052142
Bi   14.4223519135   17.6004435361   34.4861676602
Bi   5.12999188279   23.6249574377   34.4727053864
Bi   9.19355744960   22.6199114959   34.4778318224
Bi   13.2562146725   21.6165323285   34.4843266096
Bi   1.02047433790   24.5876195576   28.3076655487
Bi   3.92811756437   1.45605918729   28.3042595145
Bi   7.99545810555  0.446471313427   28.3121582265
Bi   12.0549832969   25.5889034715   28.3094031859
Bi   2.76669702273   5.48275251293   28.3000923105
Bi   6.82745341907   4.46819374347   28.3070835891
Bi   10.8937552523   3.46748885434   28.3138644344
Bi   14.9627165277   2.46783171670   28.3104674944
Bi   1.60884329012   9.50109554922   28.2943649615
Bi   5.66757811025   8.49572762634   28.2944566155
Bi   9.72723651872   7.49450148222   28.3111021019
Bi   13.7933351037   6.48623250402   28.3057928394
Bi   4.50778902968   12.5256458884   28.3051126002
Bi   8.56668868845   11.5167198086   28.3146386831
Bi   12.6411682565   10.5073211312   28.3103268381
Bi   3.33978450852   16.5440867865   28.3138357794
Bi   7.40814116441   15.5418944290   28.3145747862
Bi   11.4765538554   14.5362387263   28.3119124189
Bi  0.446994445059   13.5279758465   28.3112738096
Bi   2.17749377544   20.5614650562   28.3078553498
Bi   6.24230586589   19.5603769462   28.3065148746
Bi   10.3037508177   18.5551455582   28.2964784261
Bi   14.3711215854   17.5476207664   28.3089395406
Bi   5.08509340890   23.5719914048   28.3015356189
Bi   9.15515167733   22.5693783904   28.3014244811
Bi   13.2098345730   21.5637396829   28.2996132119
Bi   14.3656156127  0.107698383575   24.4721908396
Bi   2.17304406226   3.13764186065   24.4606668800
Bi   6.25251324649   2.12835303604   24.4647942205
Bi   10.3178103348   1.11327664563   24.4622959738
Bi   1.02563475821   7.15318864089   24.4361966610
Bi   5.08657856378   6.14132072439   24.4330258347
Bi   9.15685311174   5.13397548537   24.4486868162
Bi   13.2145079655   4.13147122100   24.4595198406
Bi   14.9661597521   11.1800804538   24.4673664521
Bi   3.92495921523   10.1643247622   24.4470752843
Bi   7.98677977457   9.15097756713   24.4689528570
Bi   12.0594740438   8.14614172952   24.4720586937
Bi   2.76514422780   14.1969155540   24.4468175237
Bi   6.81575342240   13.1923059592   24.4656713798
Bi   10.8942425942   12.1890665340   24.4923506629
Bi   1.60447733931   18.2108546711   24.4509724516
Bi   5.66454282489   17.2060903805   24.4497310977
Bi   9.72376174221   16.2119490747   24.4579312033
Bi   13.8012791024   15.2092176187   24.4617252130
Bi  0.434638281091   22.2303693245   24.4587374736
Bi   4.51688828156   21.2226196612   24.4670916090
Bi   8.57660086774   20.2200873482   24.4345314847
Bi   12.6352118346   19.2164047510   24.4389809122
Bi   3.34367774245   25.2539682782   24.4814914562
Bi   7.42202194943   24.2478548663   24.4612613135
Bi   11.4693364431   23.2328677709   24.4387882217
Se   12.1982473633   1.70121744364   9.81703526322
Se   11.8002479301   5.14687715469   9.77622083253
Se   11.3973434357   8.57157446616   9.79554863434
Se   11.0008319719   12.0339152189   9.78216563712
Se   10.5961407737   15.4694828055   9.77956529617
Se   10.2005083828   18.8984744339   9.77990396265
Se   9.81676825525   22.3543445078   9.76795724827
Se   9.41582890039   25.7880420262   9.79078303405
Se   9.01236820946   3.07350908979   9.78966201489
Se   8.62233738565   6.52343204581   9.75716966380
Se   8.22107914336   9.96004180189   9.80701395504
Se   7.81817845039   13.4133662501   9.78144810560
Se   7.43076016464   16.8405753987   9.76123200809
Se   7.03814973704   20.2784886199   9.80896784118
Se   6.64794705407   23.7386914938   9.80049058953
Se   6.25246951664   1.00668266180   9.78208324550
Se   5.84976025731   4.43980452485   9.81120978542
Se   5.45320704319   7.90408543434   9.78792513779
Se   5.04594523202   11.3388630728   9.81026883429
Se   4.65161555275   14.7779553927   9.78756887174
Se   4.25658156910   18.2160419069   9.78435200054
Se   3.85126608425   21.6547527430   9.81832310578
Se   3.47176936610   25.0984638751   9.77965876710
Se   3.07398300142   2.37923719751   9.76082049214
Se   2.65962518832   5.82400947038   9.80352412532
Se   2.26387480434   9.28535493343   9.75611023526
Se   1.86263704462   12.7049101001   9.76223415132
Se   1.46309718825   16.1511562099   9.78512670318
Se   1.06492707788   19.6046468270   9.76742585440
Se  0.681335225899   23.0225671668   9.77156460428
Se  0.293058823794  0.319025303327   9.76700146523
Se   14.9794933550   3.77502697566   9.76574034960
Se   14.5779447212   7.20944811437   9.79632317274
Se   14.1869358203   10.6523987902   9.76043133770
Se   13.7906691806   14.0821215643   9.79758796537
Se   13.3851743872   17.5361752133   9.81561316988
Se   12.9994747838   20.9753938053   9.77125738332
Se   12.6115665672   24.3972283327   9.79669732498
Se   12.9904877990   3.52526889167   16.2154394467
Se   12.5996810783   6.96656277692   16.2436932340
Se   12.1981117459   10.4044035179   16.1706519717
Se   11.8152934938   13.8712890791   16.2290158070
Se   11.3987686927   17.3015876021   16.2355794724
Se   11.0084828071   20.7429413568   16.2778035259
Se   10.6178092338   24.1718487637   16.2290510981
Se   10.2267251792   1.47057283139   16.2731935709
Se   9.80216094434   4.89437336557   16.2335931822
Se   9.40054419859   8.34653852087   16.2448591600
Se   9.00800777128   11.7961381962   16.1938534566
Se   8.62524884008   15.2531124025   16.2694832617
Se   8.21289263594   18.6722807771   16.2348488873
Se   7.83499153771   22.1059967153   16.2552298457
Se   7.45238530903   25.5404008755   16.2112442797
Se   7.04248997115   2.84981528146   16.2620722692
Se   6.62184740320   6.27601862192   16.2182878949
Se   6.23824206884   9.73059327867   16.2496458862
Se   5.84702635705   13.1745421553   16.2155187053
Se   5.44869578336   16.6170549276   16.2430981703
Se   5.04049654240   20.0244197854   16.1916592310
Se   4.66372290047   23.4811593765   16.2114021514
Se   4.26368993042  0.786401737120   16.1971043358
Se   3.85777424116   4.23846961555   16.2557119206
Se   3.45347366770   7.64887415175   16.2270093708
Se   3.07512454028   11.1090130019   16.2725334863
Se   2.66368315227   14.5492715859   16.2231132288
Se   2.25348067342   17.9752767702   16.2586207179
Se   1.84504888625   21.4021546134   16.2129567099
Se   1.46252054875   24.8788855395   16.2389421532
Se   1.06026721276   2.17103538430   16.2100540155
Se  0.675595548659   5.59603207902   16.2687076657
Se  0.284586251283   9.01829031217   16.2093690530
Se   14.9976122858   12.4854454360   16.2343098749
Se   14.5840478858   15.9211713663   16.2090315008
Se   14.1755623160   19.3542954203   16.2592074967
Se   13.7778878740   22.7942388947   16.2162240657
Se   13.3897100216  0.113381003910   16.2394439317
Se   12.2084128174   1.70440881272   13.1160317117
Se   11.8058187930   5.14762600066   13.1652481726
Se   11.4023650672   8.57078525726   13.1452085376
Se   10.9996240319   12.0335987113   13.1567822937
Se   10.5961717547   15.4701630044   13.1565502969
Se   10.2026240473   18.8978412290   13.1576173878
Se   9.81961639276   22.3466278653   13.1845562752
Se   9.42293509349   25.7882468367   13.1665677665
Se   9.01628261898   3.07665762067   13.1631056630
Se   8.62370444390   6.52342494832   13.1939856855
Se   8.22243223302   9.95954507924   13.1413067828
Se   7.82025561103   13.4164378255   13.1609182124
Se   7.42974024710   16.8397319789   13.1832064875
Se   7.03724364921   20.2733985168   13.1342666584
Se   6.64369812295   23.7314928350   13.1589990382
Se   6.24798248457   1.01164341806   13.1737845989
Se   5.84531608649   4.44440114377   13.1313511338
Se   5.44474211857   7.90718525581   13.1546995037
Se   5.03718926114   11.3385017969   13.1313334461
Se   4.64504934264   14.7749703792   13.1513756454
Se   4.25555530310   18.2140070776   13.1580499235
Se   3.84542472776   21.6546394883   13.1252125561
Se   3.45644768625   25.1013469052   13.1685862452
Se   3.06208267822   2.38297056824   13.1694414617
Se   2.64994988636   5.82069669918   13.1190480468
Se   2.25549576281   9.28112742752   13.1710423550
Se   1.85902791300   12.6995455333   13.1710457211
Se   1.46060277400   16.1512359623   13.1523718940
Se   1.06168990195   19.6028448383   13.1688170397
Se  0.674212626765   23.0261583931   13.1649179431
Se  0.283858539659  0.323407663268   13.1562335495
Se   14.9782462115   3.76974793354   13.1509353532
Se   14.5791340093   7.20871279361   13.1264781042
Se   14.1925016973   10.6498640779   13.1701598757
Se   13.7860490642   14.0830357325   13.1379514720
Se   13.3832181020   17.5340856488   13.1166061741
Se   12.9996727294   20.9729203842   13.1643105373
Se   12.6156048307   24.3966416828   13.1440737852
Se   12.9909317913   3.52656906409   19.6351525339
Se   12.5927193305   6.98585418784   19.5627084227
Se   12.1924568889   10.4114859213   19.5727124653
Se   11.8212822569   13.8493059401   19.5442988681
Se   11.4064570537   17.2800663011   19.6230150364
Se   11.0060786885   20.7442955671   19.6035183156
Se   10.6012536031   24.1793564540   19.6339265224
Se   10.2149435080   1.47005749632   19.5836325146
Se   9.80693405396   4.90581047058   19.6130946835
Se   9.41938430204   8.37136818291   19.5425014822
Se   9.02508294979   11.7880891933   19.5697373966
Se   8.63221583264   15.2272017173   19.5589063206
Se   8.20061018402   18.6674939335   19.6333873733
Se   7.80768656252   22.1151997315   19.5768874609
Se   7.42047448044   25.5381675281   19.5923422510
Se   7.03786932789   2.84076100667   19.5781307818
Se   6.63454728547   6.28522513846   19.6453198300
Se   6.24268113817   9.73907364270   19.5792971995
Se   5.84668085014   13.1641075358   19.6129872482
Se   5.44406245920   16.6162661182   19.6082817026
Se   5.02839774356   20.0477970716   19.6178297454
Se   4.65068634856   23.4884867534   19.5285437484
Se   4.25997366901  0.758410523244   19.5774227461
Se   3.86238829975   4.22261288767   19.5960634132
Se   3.44695706997   7.65867111576   19.6355441728
Se   3.05945321779   11.1152502886   19.5623901196
Se   2.65381513736   14.5459443233   19.6127046780
Se   2.26126709471   17.9872531129   19.5762014074
Se   1.86325267521   21.4272036215   19.5683521404
Se   1.48283505583   24.8726079697   19.5131354430
Se   1.07472415453   2.14467453908   19.6072845039
Se  0.670062484700   5.59542897443   19.5848189793
Se  0.262474200376   9.03197846869   19.6035070377
Se   14.9753016815   12.4783370742   19.5566948499
Se   14.5849878843   15.9043510278   19.6258384889
Se   14.1935744270   19.3605034328   19.6001296844
Se   13.7967812565   22.8084089082   19.6183232280
Se   13.4036334229  0.106076251861   19.5971413331
Se   1.06302086504   24.6429178538   39.9438398479
Se   3.96196514415   1.51531758517   39.9353808077
Se   8.02920291891  0.498521962983   39.9402486802
Se   12.0948634467   25.6524695256   39.9346879853
Se   2.80051720619   5.53566430958   39.9362223725
Se   6.86525698938   4.52265453725   39.9419909595
Se   10.9365598767   3.51682047137   39.9352655129
Se   14.9995989763   2.51629517113   39.9309336099
Se   1.63953834776   9.55095224677   39.9360785533
Se   5.70381904347   8.54385591168   39.9329147491
Se   9.77380781106   7.54163587608   39.9337317413
Se   13.8437460243   6.53776405561   39.9351395569
Se   4.53878151514   12.5669161516   39.9368108747
Se   8.60873439906   11.5561836619   39.9380477282
Se   12.6743163096   10.5481266064   39.9403262124
Se   3.38041440414   16.5865954396   39.9478917119
Se   7.44834642165   15.5816487464   39.9475929647
Se   11.5168700657   14.5697495644   39.9400255680
Se  0.479012967613   13.5688495026   39.9416476675
Se   2.21843616690   20.6212745058   39.9572111732
Se   6.28866673674   19.6176372371   39.9511318305
Se   10.3546621187   18.6073192040   39.9564163786
Se   14.4271256042   17.5960929182   39.9475122701
Se   5.12996898033   23.6323713273   39.9444761823
Se   9.19086287495   22.6295376863   39.9509978101
Se   13.2583933769   21.6290838333   39.9478241427
Se   14.4230426569  0.160775527103   36.4141117594
Se   2.22523176771   3.18357325477   36.4138924900
Se   6.28810617745   2.17512802866   36.4202422170
Se   10.3488940765   1.16869821354   36.4212749197
Se   1.06112881439   7.20603658941   36.4095206169
Se   5.12911212907   6.20166718083   36.4141265455
Se   9.19409983974   5.19062853121   36.4201752257
Se   13.2601122138   4.18995741730   36.4094442825
Se   14.9998651807   11.2252027659   36.4067936634
Se   3.96421393942   10.2253377415   36.4134967875
Se   8.02841778651   9.21651214061   36.4185383095
Se   12.0957970138   8.20788622455   36.4129539922
Se   2.80738602210   14.2422781880   36.4136649103
Se   6.86722025897   13.2401793260   36.4162253626
Se   10.9322639611   12.2323614261   36.4161957170
Se   1.64675086663   18.2696034687   36.4292092136
Se   5.70637013950   17.2672045969   36.4359058283
Se   9.77643218677   16.2579401462   36.4312526423
Se   13.8340016465   15.2518785120   36.4258643590
Se  0.485653959242   22.2898093809   36.4264633388
Se   4.54833321267   21.2856125525   36.4297886575
Se   8.61656686147   20.2742412132   36.4296395631
Se   12.6770120268   19.2720307171   36.4360011685
Se   3.38703856551   25.3005609352   36.4204063749
Se   7.44748673008   24.3035459335   36.4214021544
Se   11.5163963380   23.2967461315   36.4275050746
Se   1.65035494521  0.828906670309   32.8993840456
Se   4.55244710644   3.84790139106   32.9025707502
Se   8.61733308911   2.84091400316   32.9028073111
Se   12.6804227407   1.83490461402   32.9004973386
Se   3.39211605692   7.87336619711   32.8889145067
Se   7.45175772188   6.86520411221   32.9009871394
Se   11.5141273742   5.86212807282   32.9019304230
Se  0.486992597074   4.85269713360   32.8967566464
Se   2.22351449236   11.9002135677   32.8966671100
Se   6.29171035278   10.8885442581   32.8938730632
Se   10.3542427511   9.88295549318   32.8994359910
Se   14.4245965951   8.88221985646   32.8972114693
Se   5.13620187589   14.9215316875   32.9027310620
Se   9.19136022125   13.9159417681   32.9065417280
Se   13.2580816753   12.9041545636   32.8996138671
Se   3.97583025419   18.9400495718   32.9072254238
Se   8.03764776899   17.9402476452   32.9125457565
Se   12.1061012711   16.9278416122   32.9101799767
Se   1.06995136733   15.9280221686   32.9096611542
Se   2.81174120062   22.9518950195   32.8978420290
Se   6.87895344767   21.9431185479   32.9088912847
Se   10.9401247784   20.9469781445   32.9064272143
Se   15.0040241696   19.9472263753   32.9108555783
Se   5.71226140703   25.9766523183   32.9025551793
Se   9.77688838229   24.9646937444   32.9060919842
Se   13.8342518482   23.9580511265   32.9094820149
Se   14.3758814275  0.117120844675   29.8698144646
Se   2.18807688241   3.13716999331   29.8703497291
Se   6.24657871440   2.11845443444   29.8723068829
Se   10.3169753433   1.11680298395   29.8769594582
Se   1.01946847462   7.15913444306   29.8612927777
Se   5.08582200434   6.15198548510   29.8669444319
Se   9.14419437776   5.14493027832   29.8713667278
Se   13.2113361398   4.13857301033   29.8742409944
Se   14.9645021323   11.1739349885   29.8679308679
Se   3.92355070651   10.1753523146   29.8578109817
Se   7.97764858419   9.17076595007   29.8715839498
Se   12.0488684952   8.16369039064   29.8727835410
Se   2.76487799101   14.1941094326   29.8784414423
Se   6.82328358447   13.1961013112   29.8767982787
Se   10.8922848730   12.1844834707   29.8692472634
Se   1.58985251542   18.2179710106   29.8732834898
Se   5.65995186319   17.2186318887   29.8754306460
Se   9.73060564094   16.2133050629   29.8721222036
Se   13.7969176095   15.2007129057   29.8776968574
Se  0.431975908581   22.2408708639   29.8633888802
Se   4.49432200119   21.2322699884   29.8746241137
Se   8.56323266725   20.2249256617   29.8687869877
Se   12.6227206423   19.2196795340   29.8681614098
Se   3.34764962101   25.2524434812   29.8640807446
Se   7.40314725409   24.2405589604   29.8625058377
Se   11.4718288581   23.2408636406   29.8706363535
Se   1.60247357266  0.791331522333   26.3831344936
Se   4.50432299552   3.79947843664   26.3755250267
Se   8.57408641526   2.78781846952   26.3826883607
Se   12.6403150497   1.79539655575   26.3920648256
Se   3.35034064003   7.81938183110   26.3679662738
Se   7.40806590985   6.80353493049   26.3777273852
Se   11.4655689967   5.81212664686   26.3872284883
Se  0.439325206377   4.82023045007   26.3817013773
Se   2.19779810461   11.8532253765   26.3771814003
Se   6.25206327546   10.8443960862   26.3792075087
Se   10.3104290300   9.83726859673   26.3890337819
Se   14.3809930220   8.82902887655   26.3782887033
Se   5.08689067591   14.8768125533   26.3849604522
Se   9.14777643205   13.8692749943   26.3896380316
Se   13.2263867764   12.8581289006   26.3899734476
Se   3.91791320125   18.8856405488   26.3858044474
Se   7.98125651745   17.8934542149   26.3791785598
Se   12.0524619314   16.8763362225   26.3774997448
Se   1.02753974656   15.8666336798   26.3824482871
Se   2.75803898139   22.9015981544   26.3765575039
Se   6.83865338365   21.8992652815   26.3756933996
Se   10.8969298749   20.8934651286   26.3687153229
Se   14.9534719983   19.8855658046   26.3779114021
Se   5.68006360937   25.9221475019   26.3819432744
Se   9.74572106580   24.9147224348   26.3799508241
Se   13.8001481369   23.9089555729   26.3799185491
Se   1.02334353823   24.5864001431   22.9243254010
Se   3.91908628263   1.46010390213   22.9272377767
Se   8.00481871023  0.451383760594   22.9136229572
Se   12.0629466046   25.5857419437   22.8997190883
Se   2.76175604769   5.47552096198   22.8771543260
Se   6.83720478899   4.46076863320   22.8902031629
Se   10.9048437915   3.45550548354   22.8974540979
Se   14.9496829984   2.45792968482   22.9108132739
Se   1.61280052655   9.51034216972   22.8906521251
Se   5.68103313017   8.48521061067   22.8877353394
Se   9.74257462498   7.48285152572   22.9093588035
Se   13.8013857900   6.48246255900   22.8968121386
Se   4.51434444054   12.5107186425   22.8949778195
Se   8.57684287651   11.5079645250   22.9398836872
Se   12.6412693495   10.5108698867   22.9392999492
Se   3.34950935557   16.5457478906   22.8883986444
Se   7.40698543231   15.5367739525   22.8985945630
Se   11.4725962653   14.5341127602   22.9221336865
Se  0.444854826622   13.5289978283   22.9041042934
Se   2.19695305236   20.5552466012   22.9098141721
Se   6.25863946050   19.5550501892   22.8920447338
Se   10.3159559876   18.5478413425   22.8766836705
Se   14.3831231151   17.5408637527   22.8889349329
Se   5.09943598308   23.5846381207   22.9247668428
Se   9.16229708979   22.5773681431   22.8793960738
Se   13.2196955068   21.5547272005   22.8838407526
