336
Lattice="   11.9981611    0.00000000  7.00000000e-16    2.99954028    22.5132101  1.40000000e-15    0.00000000    0.00000000    44.4624159"
Nb   4.01180725408   16.5966953032   15.3283309269
Nb   7.01134753886   18.3284806941   15.3283309269
Nb   4.01180725408   13.1331245212   15.3283309269
Nb   7.01134753886   14.8649099122   15.3283309269
Nb   10.0108878236   16.5966953032   15.3283309269
Nb   13.0104281084   18.3284806941   15.3283309269
Nb   4.01180725408   9.66955373928   15.3283309269
Nb   7.01134753886   11.4013391303   15.3283309269
Nb   10.0108878236   13.1331245212   15.3283309269
Nb   13.0104281084   14.8649099122   15.3283309269
Nb   4.01180725408   6.20598295734   15.3283309269
Nb   7.01134753886   7.93776834831   15.3283309269
Nb   10.0108878236   9.66955373928   15.3283309269
Nb   13.0104281084   11.4013391303   15.3283309269
Nb   4.01180725408   2.74241217539   15.3283309269
Nb   7.01134753886   4.47419756636   15.3283309269
Nb   10.0108878236   6.20598295734   15.3283309269
Nb   13.0104281084   7.93776834831   15.3283309269
Nb   4.01180725408   20.0602660851   15.3283309269
Nb   7.01134753886   21.7920514761   15.3283309269
Nb   7.01134753886   1.01062678442   15.3283309269
Nb   10.0108878236   2.74241217539   15.3283309269
Nb   1.01226696930   4.47419756636   15.3283309269
Nb   10.0108878236   20.0602660851   15.3283309269
Nb   13.0104281084   21.7920514761   15.3283309269
Nb   1.01226696930   1.01062678442   15.3283309269
Nb   4.01753649740   16.5887376415   9.18208868332
Nb   7.01707678218   18.3205230325   9.18208868332
Nb   4.01753649740   13.1251668596   9.18208868332
Nb   7.01707678218   14.8569522506   9.18208868332
Nb   10.0166170670   16.5887376415   9.18208868332
Nb   13.0161573517   18.3205230325   9.18208868332
Nb   4.01753649740   9.66159607765   9.18208868332
Nb   7.01707678218   11.3933814686   9.18208868332
Nb   10.0166170670   13.1251668596   9.18208868332
Nb   13.0161573517   14.8569522506   9.18208868332
Nb   4.01753649740   6.19802529570   9.18208868332
Nb   7.01707678218   7.92981068667   9.18208868332
Nb   10.0166170670   9.66159607765   9.18208868332
Nb   13.0161573517   11.3933814686   9.18208868332
Nb   4.01753649740   2.73445451375   9.18208868332
Nb   7.01707678218   4.46623990473   9.18208868332
Nb   10.0166170670   6.19802529570   9.18208868332
Nb   13.0161573517   7.92981068667   9.18208868332
Nb   4.01753649740   20.0523084235   9.18208868332
Nb   7.01707678218   21.7840938145   9.18208868332
Nb   7.01707678218   1.00266912278   9.18208868332
Nb   10.0166170670   2.73445451375   9.18208868332
Nb   1.01799621262   4.46623990473   9.18208868332
Nb   10.0166170670   20.0523084235   9.18208868332
Nb   13.0161573517   21.7840938145   9.18208868332
Nb   1.01799621262   1.00266912278   9.18208868332
Bi   5.66076381732  0.234275808099   35.3209507183
Bi   1.66137677095  0.234275808099   35.3209507183
Bi   9.66015086369  0.234275808099   35.3209507183
Bi   7.49381621357   3.98647748854   35.3209507183
Bi   3.49442916720   3.98647748854   35.3209507183
Bi   11.4932032599   3.98647748854   35.3209507183
Bi   9.32686860983   7.73867916898   35.3209507183
Bi   5.32748156345   7.73867916898   35.3209507183
Bi   1.32809451708   7.73867916898   35.3209507183
Bi   7.16053395971   11.4908808494   35.3209507183
Bi   3.16114691333   11.4908808494   35.3209507183
Bi   11.1599210061   11.4908808494   35.3209507183
Bi   8.99358635596   15.2430825299   35.3209507183
Bi   4.99419930959   15.2430825299   35.3209507183
Bi   12.9929734023   15.2430825299   35.3209507183
Bi   10.8266387522   18.9952842103   35.3209507183
Bi   6.82725170584   18.9952842103   35.3209507183
Bi   2.82786465947   18.9952842103   35.3209507183
Bi   7.59730984520   1.44920080276   31.3343077101
Bi   3.59792279883   1.44920080276   31.3343077101
Bi   11.5966968916   1.44920080276   31.3343077101
Bi   9.43036224145   5.20140248320   31.3343077101
Bi   5.43097519508   5.20140248320   31.3343077101
Bi   1.43158814871   5.20140248320   31.3343077101
Bi   11.2634146377   8.95360416364   31.3343077101
Bi   7.26402759134   8.95360416364   31.3343077101
Bi   3.26464054496   8.95360416364   31.3343077101
Bi   9.09707998759   12.7058058441   31.3343077101
Bi   5.09769294122   12.7058058441   31.3343077101
Bi   13.0964670340   12.7058058441   31.3343077101
Bi   10.9301323838   16.4580075245   31.3343077101
Bi   6.93074533747   16.4580075245   31.3343077101
Bi   2.93135829110   16.4580075245   31.3343077101
Bi   12.7631847801   20.2102092050   31.3343077101
Bi   8.76379773372   20.2102092050   31.3343077101
Bi   4.76441068735   20.2102092050   31.3343077101
Bi   7.64545253701   1.39915560117   25.2928290677
Bi   3.64606549063   1.39915560117   25.2928290677
Bi   11.6448395834   1.39915560117   25.2928290677
Bi   9.47850493326   5.15135728161   25.2928290677
Bi   5.47911788689   5.15135728161   25.2928290677
Bi   1.47973084052   5.15135728161   25.2928290677
Bi   11.3115573295   8.90355896205   25.2928290677
Bi   7.31217028314   8.90355896205   25.2928290677
Bi   3.31278323677   8.90355896205   25.2928290677
Bi   9.14522267940   12.6557606425   25.2928290677
Bi   5.14583563302   12.6557606425   25.2928290677
Bi   13.1446097258   12.6557606425   25.2928290677
Bi   10.9782750757   16.4079623229   25.2928290677
Bi   6.97888802928   16.4079623229   25.2928290677
Bi   2.97950098291   16.4079623229   25.2928290677
Bi   12.8113274719   20.1601640034   25.2928290677
Bi   8.81194042553   20.1601640034   25.2928290677
Bi   4.81255337916   20.1601640034   25.2928290677
Bi   6.74021584949   21.3982583264   21.3211086462
Bi   14.7389899422   21.3982583264   21.3211086462
Bi   10.7396028959   21.3982583264   21.3211086462
Bi   5.57372796097   2.63724992423   21.3211086462
Bi   1.57434091460   2.63724992423   21.3211086462
Bi   9.57311500734   2.63724992423   21.3211086462
Bi   7.40678035722   6.38945160467   21.3211086462
Bi   3.40739331085   6.38945160467   21.3211086462
Bi   11.4061674036   6.38945160467   21.3211086462
Bi   5.24044570710   10.1416532851   21.3211086462
Bi   13.2392197999   10.1416532851   21.3211086462
Bi   9.23983275348   10.1416532851   21.3211086462
Bi   7.07349810336   13.8938549656   21.3211086462
Bi   3.07411105699   13.8938549656   21.3211086462
Bi   11.0728851497   13.8938549656   21.3211086462
Bi   8.90655049961   17.6460566460   21.3211086462
Bi   4.90716345324   17.6460566460   21.3211086462
Bi   12.9059375460   17.6460566460   21.3211086462
Se   14.0157995969   16.5882124331   7.50000000000
Se   5.01717874257   18.3199978241   7.50000000000
Se   2.01763845779   13.1246416512   7.50000000000
Se   5.01717874257   14.8564270422   7.50000000000
Se   8.01671902735   16.5882124331   7.50000000000
Se   11.0162593121   18.3199978241   7.50000000000
Se   2.01763845779   9.66107086923   7.50000000000
Se   5.01717874257   11.3928562602   7.50000000000
Se   8.01671902735   13.1246416512   7.50000000000
Se   11.0162593121   14.8564270422   7.50000000000
Se   2.01763845779   6.19750008728   7.50000000000
Se   5.01717874257   7.92928547825   7.50000000000
Se   8.01671902735   9.66107086923   7.50000000000
Se   11.0162593121   11.3928562602   7.50000000000
Se   2.01763845779   2.73392930533   7.50000000000
Se   5.01717874257   4.46571469631   7.50000000000
Se   8.01671902735   6.19750008728   7.50000000000
Se   11.0162593121   7.92928547825   7.50000000000
Se   14.0157995969   20.0517832151   7.50000000000
Se   5.01717874257   21.7835686060   7.50000000000
Se   5.01717874257   1.00214391436   7.50000000000
Se   8.01671902735   2.73392930533   7.50000000000
Se   11.0162593121   4.46571469631   7.50000000000
Se   8.01671902735   20.0517832151   7.50000000000
Se   11.0162593121   21.7835686060   7.50000000000
Se   11.0162593121   1.00214391436   7.50000000000
Se   3.01178756265   18.3282494119   13.6460282443
Se   6.01132784743   20.0600348029   13.6460282443
Se   3.01178756265   14.8646786300   13.6460282443
Se   6.01132784743   16.5964640210   13.6460282443
Se   9.01086813221   18.3282494119   13.6460282443
Se   12.0104084170   20.0600348029   13.6460282443
Se   3.01178756265   11.4011078480   13.6460282443
Se   6.01132784743   13.1328932390   13.6460282443
Se   9.01086813221   14.8646786300   13.6460282443
Se   12.0104084170   16.5964640210   13.6460282443
Se   3.01178756265   7.93753706610   13.6460282443
Se   6.01132784743   9.66932245707   13.6460282443
Se   9.01086813221   11.4011078480   13.6460282443
Se   12.0104084170   13.1328932390   13.6460282443
Se   3.01178756265   4.47396628415   13.6460282443
Se   6.01132784743   6.20575167513   13.6460282443
Se   9.01086813221   7.93753706610   13.6460282443
Se   12.0104084170   9.66932245707   13.6460282443
Se   3.01178756265   21.7918201939   13.6460282443
Se   3.01178756265   1.01039550221   13.6460282443
Se   6.01132784743   2.74218089318   13.6460282443
Se   9.01086813221   4.47396628415   13.6460282443
Se   12.0104084170   6.20575167513   13.6460282443
Se   9.01086813221   21.7918201939   13.6460282443
Se   9.01086813221   1.01039550221   13.6460282443
Se   12.0104084170   2.74218089318   13.6460282443
Se   14.0155500898   16.5892593045   10.8644375631
Se   5.01692923550   18.3210446955   10.8644375631
Se   2.01738895072   13.1256885225   10.8644375631
Se   5.01692923550   14.8574739135   10.8644375631
Se   8.01646952028   16.5892593045   10.8644375631
Se   11.0160098051   18.3210446955   10.8644375631
Se   2.01738895072   9.66211774058   10.8644375631
Se   5.01692923550   11.3939031315   10.8644375631
Se   8.01646952028   13.1256885225   10.8644375631
Se   11.0160098051   14.8574739135   10.8644375631
Se   2.01738895072   6.19854695863   10.8644375631
Se   5.01692923550   7.93033234961   10.8644375631
Se   8.01646952028   9.66211774058   10.8644375631
Se   11.0160098051   11.3939031315   10.8644375631
Se   2.01738895072   2.73497617669   10.8644375631
Se   5.01692923550   4.46676156766   10.8644375631
Se   8.01646952028   6.19854695863   10.8644375631
Se   11.0160098051   7.93033234961   10.8644375631
Se   14.0155500898   20.0528300864   10.8644375631
Se   5.01692923550   21.7846154774   10.8644375631
Se   5.01692923550   1.00319078571   10.8644375631
Se   8.01646952028   2.73497617669   10.8644375631
Se   11.0160098051   4.46676156766   10.8644375631
Se   8.01646952028   20.0528300864   10.8644375631
Se   11.0160098051   21.7846154774   10.8644375631
Se   11.0160098051   1.00319078571   10.8644375631
Se   3.01172019839   18.3293052264   17.0104680300
Se   6.01126048317   20.0610906174   17.0104680300
Se   3.01172019839   14.8657344444   17.0104680300
Se   6.01126048317   16.5975198354   17.0104680300
Se   9.01080076795   18.3293052264   17.0104680300
Se   12.0103410527   20.0610906174   17.0104680300
Se   3.01172019839   11.4021636625   17.0104680300
Se   6.01126048317   13.1339490535   17.0104680300
Se   9.01080076795   14.8657344444   17.0104680300
Se   12.0103410527   16.5975198354   17.0104680300
Se   3.01172019839   7.93859288055   17.0104680300
Se   6.01126048317   9.67037827152   17.0104680300
Se   9.01080076795   11.4021636625   17.0104680300
Se   12.0103410527   13.1339490535   17.0104680300
Se   3.01172019839   4.47502209860   17.0104680300
Se   6.01126048317   6.20680748957   17.0104680300
Se   9.01080076795   7.93859288055   17.0104680300
Se   12.0103410527   9.67037827152   17.0104680300
Se   3.01172019839   21.7928760083   17.0104680300
Se   3.01172019839   1.01145131666   17.0104680300
Se   6.01126048317   2.74323670763   17.0104680300
Se   9.01080076795   4.47502209860   17.0104680300
Se   12.0103410527   6.20680748957   17.0104680300
Se   9.01080076795   21.7928760083   17.0104680300
Se   9.01080076795   1.01145131666   17.0104680300
Se   12.0103410527   2.74323670763   17.0104680300
Se   7.61491667611   1.49084621582   36.9624158930
Se   3.61552962974   1.49084621582   36.9624158930
Se   11.6143037225   1.49084621582   36.9624158930
Se   9.44796907237   5.24304789626   36.9624158930
Se   5.44858202600   5.24304789626   36.9624158930
Se   1.44919497962   5.24304789626   36.9624158930
Se   11.2810214686   8.99524957670   36.9624158930
Se   7.28163442225   8.99524957670   36.9624158930
Se   3.28224737588   8.99524957670   36.9624158930
Se   9.11468681850   12.7474512571   36.9624158930
Se   5.11529977213   12.7474512571   36.9624158930
Se   13.1140738649   12.7474512571   36.9624158930
Se   10.9477392148   16.4996529376   36.9624158930
Se   6.94835216838   16.4996529376   36.9624158930
Se   2.94896512201   16.4996529376   36.9624158930
Se   12.7807916110   20.2518546180   36.9624158930
Se   8.78140456464   20.2518546180   36.9624158930
Se   4.78201751827   20.2518546180   36.9624158930
Se   6.69944390183   21.4780771335   33.3248314276
Se   14.6982179946   21.4780771335   33.3248314276
Se   10.6988309482   21.4780771335   33.3248314276
Se   5.53295601331   2.71706873126   33.3248314276
Se   1.53356896694   2.71706873126   33.3248314276
Se   9.53234305968   2.71706873126   33.3248314276
Se   7.36600840956   6.46927041170   33.3248314276
Se   3.36662136319   6.46927041170   33.3248314276
Se   11.3653954559   6.46927041170   33.3248314276
Se   5.19967375944   10.2214720922   33.3248314276
Se   13.1984478522   10.2214720922   33.3248314276
Se   9.19906080582   10.2214720922   33.3248314276
Se   7.03272615570   13.9736737726   33.3248314276
Se   3.03333910933   13.9736737726   33.3248314276
Se   11.0321132021   13.9736737726   33.3248314276
Se   8.86577855195   17.7258754530   33.3248314276
Se   4.86639150558   17.7258754530   33.3248314276
Se   12.8651655983   17.7258754530   33.3248314276
Se   5.65635089336  0.212612848409   29.6913123135
Se   1.65696384698  0.212612848409   29.6913123135
Se   9.65573793973  0.212612848409   29.6913123135
Se   7.48940328961   3.96481452885   29.6913123135
Se   3.49001624324   3.96481452885   29.6913123135
Se   11.4887903360   3.96481452885   29.6913123135
Se   9.32245568586   7.71701620929   29.6913123135
Se   5.32306863949   7.71701620929   29.6913123135
Se   1.32368159312   7.71701620929   29.6913123135
Se   7.15612103575   11.4692178897   29.6913123135
Se   3.15673398937   11.4692178897   29.6913123135
Se   11.1555080821   11.4692178897   29.6913123135
Se   8.98917343200   15.2214195702   29.6913123135
Se   4.98978638563   15.2214195702   29.6913123135
Se   12.9885604784   15.2214195702   29.6913123135
Se   10.8222258283   18.9736212506   29.6913123135
Se   6.82283878188   18.9736212506   29.6913123135
Se   2.82345173551   18.9736212506   29.6913123135
Se   6.73714567202   21.4011796484   26.9245759022
Se   14.7359197648   21.4011796484   26.9245759022
Se   10.7365327184   21.4011796484   26.9245759022
Se   5.57065778349   2.64017124619   26.9245759022
Se   1.57127073712   2.64017124619   26.9245759022
Se   9.57004482986   2.64017124619   26.9245759022
Se   7.40371017975   6.39237292663   26.9245759022
Se   3.40432313337   6.39237292663   26.9245759022
Se   11.4030972261   6.39237292663   26.9245759022
Se   5.23737552963   10.1445746071   26.9245759022
Se   13.2361496224   10.1445746071   26.9245759022
Se   9.23676257600   10.1445746071   26.9245759022
Se   7.07042792588   13.8967762875   26.9245759022
Se   3.07104087951   13.8967762875   26.9245759022
Se   11.0698149723   13.8967762875   26.9245759022
Se   8.90348032213   17.6489779680   26.9245759022
Se   4.90409327576   17.6489779680   26.9245759022
Se   12.9028673685   17.6489779680   26.9245759022
Se   5.70057967553  0.140131177673   23.3067135554
Se   1.70119262916  0.140131177673   23.3067135554
Se   9.69996672190  0.140131177673   23.3067135554
Se   7.53363207179   3.89233285812   23.3067135554
Se   3.53424502541   3.89233285812   23.3067135554
Se   11.5330191182   3.89233285812   23.3067135554
Se   9.36668446804   7.64453453856   23.3067135554
Se   5.36729742167   7.64453453856   23.3067135554
Se   1.36791037529   7.64453453856   23.3067135554
Se   7.20034981792   11.3967362190   23.3067135554
Se   3.20096277155   11.3967362190   23.3067135554
Se   11.1997368643   11.3967362190   23.3067135554
Se   9.03340221417   15.1489378994   23.3067135554
Se   5.03401516780   15.1489378994   23.3067135554
Se   13.0327892606   15.1489378994   23.3067135554
Se   10.8664546104   18.9011395799   23.3067135554
Se   6.86706756406   18.9011395799   23.3067135554
Se   2.86768051768   18.9011395799   23.3067135554
Se   7.65193895662   1.40266663612   19.6835785923
Se   3.65255191025   1.40266663612   19.6835785923
Se   11.6513260030   1.40266663612   19.6835785923
Se   9.48499135287   5.15486831656   19.6835785923
Se   5.48560430650   5.15486831656   19.6835785923
Se   1.48621726013   5.15486831656   19.6835785923
Se   11.3180437491   8.90706999700   19.6835785923
Se   7.31865670276   8.90706999700   19.6835785923
Se   3.31926965638   8.90706999700   19.6835785923
Se   9.15170909901   12.6592716774   19.6835785923
Se   5.15232205264   12.6592716774   19.6835785923
Se   13.1510961454   12.6592716774   19.6835785923
Se   10.9847614953   16.4114733579   19.6835785923
Se   6.98537444889   16.4114733579   19.6835785923
Se   2.98598740252   16.4114733579   19.6835785923
Se   12.8178138915   20.1636750383   19.6835785923
Se   8.81842684514   20.1636750383   19.6835785923
Se   4.81903979877   20.1636750383   19.6835785923
