390
Lattice="   12.4880820    0.00000000  8.00000000e-16   0.960621697    24.9576838  1.50000000e-15    0.00000000    0.00000000    44.4624159"
Nb   4.02519494306   19.4342707849   15.3283309269
Nb   7.38737087957   20.2661935772   15.3283309269
Nb   10.7495468161   21.0981163696   15.3283309269
Nb   3.06457324681   16.1065796156   15.3283309269
Nb   6.42674918332   16.9385024079   15.3283309269
Nb   9.78892511982   17.7704252003   15.3283309269
Nb   13.1511010563   18.6023479926   15.3283309269
Nb   2.10395155057   12.7788884463   15.3283309269
Nb   5.46612748707   13.6108112386   15.3283309269
Nb   8.82830342357   14.4427340310   15.3283309269
Nb   12.1904793601   15.2746568233   15.3283309269
Nb   1.14332985432   9.45119727700   15.3283309269
Nb   4.50550579082   10.2831200693   15.3283309269
Nb   7.86768172733   11.1150428617   15.3283309269
Nb   11.2298576638   11.9469656540   15.3283309269
Nb   3.54488409457   6.95542890003   15.3283309269
Nb   6.90706003108   7.78735169235   15.3283309269
Nb   10.2692359676   8.61927448468   15.3283309269
Nb   2.58426239832   3.62773773072   15.3283309269
Nb   5.94643833483   4.45966052305   15.3283309269
Nb   9.30861427133   5.29158331538   15.3283309269
Nb   12.6707902078   6.12350610770   15.3283309269
Nb   1.62364070207  0.300046561422   15.3283309269
Nb   4.98581663858   1.13196935375   15.3283309269
Nb   8.34799257508   1.96389214607   15.3283309269
Nb   11.7101685116   2.79581493840   15.3283309269
Nb   1.62364070281   21.9300391619   15.3283309269
Nb   4.98581663931   22.7619619542   15.3283309269
Nb   8.34799257582   23.5938847465   15.3283309269
Nb   11.7101685123   24.4258075389   15.3283309269
Nb   4.02849236376   19.4250363047   9.18208868332
Nb   7.39066830027   20.2569590970   9.18208868332
Nb   10.7528442368   21.0888818894   9.18208868332
Nb   3.06787066751   16.0973451354   9.18208868332
Nb   6.43004660402   16.9292679277   9.18208868332
Nb   9.79222254052   17.7611907201   9.18208868332
Nb   13.1543984770   18.5931135124   9.18208868332
Nb   2.10724897126   12.7696539661   9.18208868332
Nb   5.46942490777   13.6015767584   9.18208868332
Nb   8.83160084427   14.4334995508   9.18208868332
Nb   12.1937767808   15.2654223431   9.18208868332
Nb   1.14662727502   9.44196279681   9.18208868332
Nb   4.50880321152   10.2738855891   9.18208868332
Nb   7.87097914802   11.1058083815   9.18208868332
Nb   11.2331550845   11.9377311738   9.18208868332
Nb   3.54818151527   6.94619441983   9.18208868332
Nb   6.91035745177   7.77811721216   9.18208868332
Nb   10.2725333883   8.61004000448   9.18208868332
Nb   2.58755981902   3.61850325053   9.18208868332
Nb   5.94973575553   4.45042604286   9.18208868332
Nb   9.31191169203   5.28234883518   9.18208868332
Nb   12.6740876285   6.11427162751   9.18208868332
Nb   1.62693812277  0.290812081228   9.18208868332
Nb   4.98911405928   1.12273487355   9.18208868332
Nb   8.35128999578   1.95465766588   9.18208868332
Nb   11.7134659323   2.78658045820   9.18208868332
Nb   1.62693812351   21.9208046817   9.18208868332
Nb   4.98911406001   22.7527274740   9.18208868332
Nb   8.35128999652   23.5846502663   9.18208868332
Nb   11.7134659330   24.4165730587   9.18208868332
Bi   9.33689866769   18.5384049085   35.3209507183
Bi   5.17420465110   18.5384049085   35.3209507183
Bi   1.01151063451   18.5384049085   35.3209507183
Bi   7.41565527530   14.9730215129   35.3209507183
Bi   3.25296125871   14.9730215129   35.3209507183
Bi   11.5783492919   14.9730215129   35.3209507183
Bi   9.65710589949   11.4076381172   35.3209507183
Bi   5.49441188290   11.4076381172   35.3209507183
Bi   1.33171786631   11.4076381172   35.3209507183
Bi   7.73586250710   7.84225472149   35.3209507183
Bi   3.57316849051   7.84225472149   35.3209507183
Bi   11.8985565237   7.84225472149   35.3209507183
Bi   9.97731313129   4.27687132580   35.3209507183
Bi   5.81461911470   4.27687132580   35.3209507183
Bi   1.65192509811   4.27687132580   35.3209507183
Bi   8.05606973890  0.711487930124   35.3209507183
Bi   3.89337572231  0.711487930124   35.3209507183
Bi   12.2187637555  0.711487930124   35.3209507183
Bi   7.09544804349   22.1037883042   35.3209507183
Bi   2.93275402690   22.1037883042   35.3209507183
Bi   11.2581420601   22.1037883042   35.3209507183
Bi   11.4605195400   17.3839697870   31.3343077101
Bi   7.29782552343   17.3839697870   31.3343077101
Bi   3.13513150684   17.3839697870   31.3343077101
Bi   9.53927614763   13.8185863913   31.3343077101
Bi   5.37658213104   13.8185863913   31.3343077101
Bi   1.21388811445   13.8185863913   31.3343077101
Bi   11.7807267718   10.2532029956   31.3343077101
Bi   7.61803275523   10.2532029956   31.3343077101
Bi   3.45533873864   10.2532029956   31.3343077101
Bi   9.85948337943   6.68781959996   31.3343077101
Bi   5.69678936284   6.68781959996   31.3343077101
Bi   1.53409534625   6.68781959996   31.3343077101
Bi   12.1009340036   3.12243620428   31.3343077101
Bi   7.93823998704   3.12243620428   31.3343077101
Bi   3.77554597045   3.12243620428   31.3343077101
Bi   11.1403123082   24.5147365784   31.3343077101
Bi   6.97761829163   24.5147365784   31.3343077101
Bi   2.81492427504   24.5147365784   31.3343077101
Bi   9.21906891583   20.9493531827   31.3343077101
Bi   5.05637489924   20.9493531827   31.3343077101
Bi  0.893680882646   20.9493531827   31.3343077101
Bi   11.5061793111   17.4315232892   25.2928290677
Bi   7.34348529449   17.4315232892   25.2928290677
Bi   3.18079127790   17.4315232892   25.2928290677
Bi   9.58493591869   13.8661398935   25.2928290677
Bi   5.42224190210   13.8661398935   25.2928290677
Bi   1.25954788551   13.8661398935   25.2928290677
Bi   11.8263865429   10.3007564978   25.2928290677
Bi   7.66369252629   10.3007564978   25.2928290677
Bi   3.50099850970   10.3007564978   25.2928290677
Bi   9.90514315049   6.73537310213   25.2928290677
Bi   5.74244913390   6.73537310213   25.2928290677
Bi   1.57975511731   6.73537310213   25.2928290677
Bi   12.1465937747   3.16998970645   25.2928290677
Bi   7.98389975810   3.16998970645   25.2928290677
Bi   3.82120574151   3.16998970645   25.2928290677
Bi   11.1859720793   24.5622900805   25.2928290677
Bi   7.02327806269   24.5622900805   25.2928290677
Bi   2.86058404610   24.5622900805   25.2928290677
Bi   9.26472868688   20.9969066849   25.2928290677
Bi   5.10203467030   20.9969066849   25.2928290677
Bi  0.939340653705   20.9969066849   25.2928290677
Bi   7.21846886313   19.8204558121   21.3211086462
Bi   3.05577484654   19.8204558121   21.3211086462
Bi   11.3811628797   19.8204558121   21.3211086462
Bi   5.29722547074   16.2550724164   21.3211086462
Bi   1.13453145415   16.2550724164   21.3211086462
Bi   9.45991948733   16.2550724164   21.3211086462
Bi   7.53867609493   12.6896890207   21.3211086462
Bi   3.37598207834   12.6896890207   21.3211086462
Bi   11.7013701115   12.6896890207   21.3211086462
Bi   5.61743270254   9.12430562506   21.3211086462
Bi   1.45473868595   9.12430562506   21.3211086462
Bi   9.78012671913   9.12430562506   21.3211086462
Bi   7.85888332674   5.55892222938   21.3211086462
Bi   3.69618931015   5.55892222938   21.3211086462
Bi   12.0215773433   5.55892222938   21.3211086462
Bi   5.93763993434   1.99353883370   21.3211086462
Bi   1.77494591775   1.99353883370   21.3211086462
Bi   10.1003339509   1.99353883370   21.3211086462
Bi   4.97701823894   23.3858392078   21.3211086462
Bi   13.3024062721   23.3858392078   21.3211086462
Bi   9.13971225552   23.3858392078   21.3211086462
Se   2.10690681188   19.9792036183   7.50000000000
Se   5.46908274839   20.8111264106   7.50000000000
Se   8.83125868489   21.6430492030   7.50000000000
Se   1.14628511563   16.6515124490   7.50000000000
Se   4.50846105213   17.4834352413   7.50000000000
Se   7.87063698864   18.3153580337   7.50000000000
Se   11.2328129251   19.1472808260   7.50000000000
Se   12.6737454692   13.3238212797   7.50000000000
Se   3.54783935589   14.1557440720   7.50000000000
Se   6.91001529239   14.9876668644   7.50000000000
Se   10.2721912289   15.8195896567   7.50000000000
Se   11.7131237729   9.99613011041   7.50000000000
Se   2.58721765964   10.8280529027   7.50000000000
Se   5.94939359614   11.6599756951   7.50000000000
Se   9.31156953265   12.4918984874   7.50000000000
Se   1.62659596339   7.50036173344   7.50000000000
Se   4.98877189989   8.33228452576   7.50000000000
Se   8.35094783640   9.16420731809   7.50000000000
Se  0.665974267137   4.17267056414   7.50000000000
Se   4.02815020364   5.00459335646   7.50000000000
Se   7.39032614015   5.83651614879   7.50000000000
Se   10.7525020767   6.66843894111   7.50000000000
Se   12.1934346207  0.844979394834   7.50000000000
Se   3.06752850739   1.67690218716   7.50000000000
Se   6.42970444390   2.50882497948   7.50000000000
Se   9.79188038040   3.34074777181   7.50000000000
Se   12.1934346214   22.4749719953   7.50000000000
Se   3.06752850813   23.3068947876   7.50000000000
Se   6.42970444463   24.1388175800   7.50000000000
Se   8.83125868415 0.0130566025082   7.50000000000
Se   3.54465380331   21.3752497204   13.6460282443
Se   6.90682973981   22.2071725127   13.6460282443
Se   10.2690056763   23.0390953050   13.6460282443
Se   2.58403210706   18.0475585511   13.6460282443
Se   5.94620804357   18.8794813434   13.6460282443
Se   9.30838398007   19.7114041357   13.6460282443
Se   12.6705599166   20.5433269280   13.6460282443
Se   1.62341041081   14.7198673817   13.6460282443
Se   4.98558634732   15.5517901741   13.6460282443
Se   8.34776228382   16.3837129664   13.6460282443
Se   11.7099382203   17.2156357587   13.6460282443
Se  0.662788714561   11.3921762124   13.6460282443
Se   4.02496465107   12.2240990048   13.6460282443
Se   7.38714058757   13.0560217971   13.6460282443
Se   10.7493165241   13.8879445894   13.6460282443
Se   3.06434295482   8.89640783547   13.6460282443
Se   6.42651889132   9.72833062779   13.6460282443
Se   9.78869482783   10.5602534201   13.6460282443
Se   2.10372125857   5.56871666616   13.6460282443
Se   5.46589719507   6.40063945849   13.6460282443
Se   8.82807313158   7.23256225082   13.6460282443
Se   12.1902490681   8.06448504314   13.6460282443
Se   1.14309956232   2.24102549686   13.6460282443
Se   4.50527549882   3.07294828919   13.6460282443
Se   7.86745143533   3.90487108151   13.6460282443
Se   11.2296273718   4.73679387384   13.6460282443
Se   1.14309956305   23.8710180973   13.6460282443
Se   4.50527549956   24.7029408897   13.6460282443
Se   6.90682973908  0.577179912212   13.6460282443
Se   10.2690056756   1.40910270454   13.6460282443
Se   2.10695744311   19.9802786206   10.8644375631
Se   5.46913337962   20.8122014129   10.8644375631
Se   8.83130931612   21.6441242052   10.8644375631
Se   1.14633574686   16.6525874513   10.8644375631
Se   4.50851168337   17.4845102436   10.8644375631
Se   7.87068761987   18.3164330359   10.8644375631
Se   11.2328635564   19.1483558283   10.8644375631
Se   12.6737961004   13.3248962820   10.8644375631
Se   3.54788998712   14.1568190743   10.8644375631
Se   6.91006592362   14.9887418666   10.8644375631
Se   10.2722418601   15.8206646590   10.8644375631
Se   11.7131744041   9.99720511269   10.8644375631
Se   2.58726829087   10.8291279050   10.8644375631
Se   5.94944422737   11.6610506973   10.8644375631
Se   9.31162016388   12.4929734897   10.8644375631
Se   1.62664659462   7.50143673571   10.8644375631
Se   4.98882253112   8.33335952803   10.8644375631
Se   8.35099846763   9.16528232036   10.8644375631
Se  0.666024898367   4.17374556641   10.8644375631
Se   4.02820083487   5.00566835873   10.8644375631
Se   7.39037677138   5.83759115106   10.8644375631
Se   10.7525527079   6.66951394338   10.8644375631
Se   12.1934852519  0.846054397106   10.8644375631
Se   3.06757913862   1.67797718943   10.8644375631
Se   6.42975507513   2.50989998176   10.8644375631
Se   9.79193101163   3.34182277408   10.8644375631
Se   12.1934852526   22.4760469976   10.8644375631
Se   3.06757913936   23.3079697899   10.8644375631
Se   6.42975507587   24.1398925822   10.8644375631
Se   8.83130931538 0.0141316047802   10.8644375631
Se   3.54488191206   21.3762827975   17.0104680300
Se   6.90705784856   22.2082055899   17.0104680300
Se   10.2692337851   23.0401283822   17.0104680300
Se   2.58426021581   18.0485916282   17.0104680300
Se   5.94643615231   18.8805144206   17.0104680300
Se   9.30861208882   19.7124372129   17.0104680300
Se   12.6707880253   20.5443600052   17.0104680300
Se   1.62363851956   14.7209004589   17.0104680300
Se   4.98581445606   15.5528232513   17.0104680300
Se   8.34799039257   16.3847460436   17.0104680300
Se   11.7101663291   17.2166688359   17.0104680300
Se  0.663016823310   11.3932092896   17.0104680300
Se   4.02519275982   12.2251320820   17.0104680300
Se   7.38736869632   13.0570548743   17.0104680300
Se   10.7495446328   13.8889776666   17.0104680300
Se   3.06457106357   8.89744091266   17.0104680300
Se   6.42674700007   9.72936370499   17.0104680300
Se   9.78892293658   10.5612864973   17.0104680300
Se   2.10394936732   5.56974974336   17.0104680300
Se   5.46612530382   6.40167253568   17.0104680300
Se   8.82830124033   7.23359532801   17.0104680300
Se   12.1904771768   8.06551812034   17.0104680300
Se   1.14332767107   2.24205857406   17.0104680300
Se   4.50550360757   3.07398136638   17.0104680300
Se   7.86767954408   3.90590415871   17.0104680300
Se   11.2298554806   4.73782695103   17.0104680300
Se   1.14332767180   23.8720511745   17.0104680300
Se   4.50550360831   24.7039739668   17.0104680300
Se   6.90705784783  0.578212989406   17.0104680300
Se   10.2692337843   1.41013578173   17.0104680300
Se   11.4825473489   17.3443978565   36.9624158930
Se   7.31985333234   17.3443978565   36.9624158930
Se   3.15715931575   17.3443978565   36.9624158930
Se   9.56130395653   13.7790144608   36.9624158930
Se   5.39860993994   13.7790144608   36.9624158930
Se   1.23591592335   13.7790144608   36.9624158930
Se   11.8027545807   10.2136310651   36.9624158930
Se   7.64006056414   10.2136310651   36.9624158930
Se   3.47736654755   10.2136310651   36.9624158930
Se   9.88151118833   6.64824766943   36.9624158930
Se   5.71881717174   6.64824766943   36.9624158930
Se   1.55612315515   6.64824766943   36.9624158930
Se   12.1229618125   3.08286427375   36.9624158930
Se   7.96026779594   3.08286427375   36.9624158930
Se   3.79757377935   3.08286427375   36.9624158930
Se   11.1623401171   24.4751646478   36.9624158930
Se   6.99964610053   24.4751646478   36.9624158930
Se   2.83695208394   24.4751646478   36.9624158930
Se   9.24109672473   20.9097812522   36.9624158930
Se   5.07840270814   20.9097812522   36.9624158930
Se  0.915708691549   20.9097812522   36.9624158930
Se   7.18312750850   19.7446111019   33.3248314276
Se   3.02043349191   19.7446111019   33.3248314276
Se   11.3458215251   19.7446111019   33.3248314276
Se   5.26188411611   16.1792277062   33.3248314276
Se   1.09919009952   16.1792277062   33.3248314276
Se   9.42457813270   16.1792277062   33.3248314276
Se   7.50333474030   12.6138443105   33.3248314276
Se   3.34064072371   12.6138443105   33.3248314276
Se   11.6660287569   12.6138443105   33.3248314276
Se   5.58209134791   9.04846091480   33.3248314276
Se   1.41939733132   9.04846091480   33.3248314276
Se   9.74478536450   9.04846091480   33.3248314276
Se   7.82354197211   5.48307751912   33.3248314276
Se   3.66084795552   5.48307751912   33.3248314276
Se   11.9862359887   5.48307751912   33.3248314276
Se   5.90229857971   1.91769412344   33.3248314276
Se   1.73960456312   1.91769412344   33.3248314276
Se   10.0649925963   1.91769412344   33.3248314276
Se   4.94167688431   23.3099944975   33.3248314276
Se   13.2670649175   23.3099944975   33.3248314276
Se   9.10437090090   23.3099944975   33.3248314276
Se   9.33037983799   18.5589892916   29.6913123135
Se   5.16768582140   18.5589892916   29.6913123135
Se   1.00499180481   18.5589892916   29.6913123135
Se   7.40913644559   14.9936058959   29.6913123135
Se   3.24644242900   14.9936058959   29.6913123135
Se   11.5718304622   14.9936058959   29.6913123135
Se   9.65058706979   11.4282225002   29.6913123135
Se   5.48789305320   11.4282225002   29.6913123135
Se   1.32519903661   11.4282225002   29.6913123135
Se   7.72934367740   7.86283910456   29.6913123135
Se   3.56664966081   7.86283910456   29.6913123135
Se   11.8920376940   7.86283910456   29.6913123135
Se   9.97079430159   4.29745570888   29.6913123135
Se   5.80810028500   4.29745570888   29.6913123135
Se   1.64540626841   4.29745570888   29.6913123135
Se   8.04955090920  0.732072313203   29.6913123135
Se   3.88685689261  0.732072313203   29.6913123135
Se   12.2122449258  0.732072313203   29.6913123135
Se   7.08892921379   22.1243726873   29.6913123135
Se   2.92623519720   22.1243726873   29.6913123135
Se   11.2516232304   22.1243726873   29.6913123135
Se   7.21553300986   19.8176799398   26.9245759022
Se   3.05283899327   19.8176799398   26.9245759022
Se   11.3782270265   19.8176799398   26.9245759022
Se   5.29428961746   16.2522965441   26.9245759022
Se   1.13159560087   16.2522965441   26.9245759022
Se   9.45698363405   16.2522965441   26.9245759022
Se   7.53574024166   12.6869131484   26.9245759022
Se   3.37304622507   12.6869131484   26.9245759022
Se   11.6984342583   12.6869131484   26.9245759022
Se   5.61449684927   9.12152975273   26.9245759022
Se   1.45180283268   9.12152975273   26.9245759022
Se   9.77719086586   9.12152975273   26.9245759022
Se   7.85594747346   5.55614635705   26.9245759022
Se   3.69325345687   5.55614635705   26.9245759022
Se   12.0186414901   5.55614635705   26.9245759022
Se   5.93470408107   1.99076296137   26.9245759022
Se   1.77201006448   1.99076296137   26.9245759022
Se   10.0973980977   1.99076296137   26.9245759022
Se   4.97408238566   23.3830633355   26.9245759022
Se   13.2994704188   23.3830633355   26.9245759022
Se   9.13677640225   23.3830633355   26.9245759022
Se   9.36997140937   18.6278621741   23.3067135554
Se   5.20727739278   18.6278621741   23.3067135554
Se   1.04458337619   18.6278621741   23.3067135554
Se   7.44872801698   15.0624787784   23.3067135554
Se   3.28603400039   15.0624787784   23.3067135554
Se   11.6114220336   15.0624787784   23.3067135554
Se   9.69017864117   11.4970953827   23.3067135554
Se   5.52748462458   11.4970953827   23.3067135554
Se   1.36479060799   11.4970953827   23.3067135554
Se   7.76893524878   7.93171198703   23.3067135554
Se   3.60624123219   7.93171198703   23.3067135554
Se   11.9316292654   7.93171198703   23.3067135554
Se   10.0103858730   4.36632859135   23.3067135554
Se   5.84769185639   4.36632859135   23.3067135554
Se   1.68499783980   4.36632859135   23.3067135554
Se   8.08914248058  0.800945195671   23.3067135554
Se   3.92644846399  0.800945195671   23.3067135554
Se   12.2518364972  0.800945195671   23.3067135554
Se   7.12852078518   22.1932455698   23.3067135554
Se   2.96582676859   22.1932455698   23.3067135554
Se   11.2912148018   22.1932455698   23.3067135554
Se   11.5132427015   17.4281870651   19.6835785923
Se   7.35054868494   17.4281870651   19.6835785923
Se   3.18785466835   17.4281870651   19.6835785923
Se   9.59199930913   13.8628036694   19.6835785923
Se   5.42930529254   13.8628036694   19.6835785923
Se   1.26661127595   13.8628036694   19.6835785923
Se   11.8334499333   10.2974202737   19.6835785923
Se   7.67075591674   10.2974202737   19.6835785923
Se   3.50806190015   10.2974202737   19.6835785923
Se   9.91220654093   6.73203687803   19.6835785923
Se   5.74951252434   6.73203687803   19.6835785923
Se   1.58681850775   6.73203687803   19.6835785923
Se   12.1536571651   3.16665348235   19.6835785923
Se   7.99096314854   3.16665348235   19.6835785923
Se   3.82826913195   3.16665348235   19.6835785923
Se   11.1930354697   24.5589538564   19.6835785923
Se   7.03034145313   24.5589538564   19.6835785923
Se   2.86764743654   24.5589538564   19.6835785923
Se   9.27179207733   20.9935704608   19.6835785923
Se   5.10909806074   20.9935704608   19.6835785923
Se  0.946404044149   20.9935704608   19.6835785923
