400
Lattice="   17.3178539    0.00000000  1.10000000e-15    6.92714156    17.9972417  1.20000000e-15    0.00000000    0.00000000    44.4624159"
Nb   11.1877046100  0.985899205980   15.3283309269
Nb   7.72413382825  0.985899205980   15.3283309269
Nb   4.26056304647  0.985899205980   15.3283309269
Nb  0.796992264689  0.985899205980   15.3283309269
Nb   14.6512753918  0.985899205980   15.3283309269
Nb   12.9194900011   3.98543949090   15.3283309269
Nb   9.45591921931   3.98543949090   15.3283309269
Nb   5.99234843753   3.98543949090   15.3283309269
Nb   2.52877765575   3.98543949090   15.3283309269
Nb   16.3830607829   3.98543949090   15.3283309269
Nb   14.6512753921   6.98497977583   15.3283309269
Nb   11.1877046104   6.98497977583   15.3283309269
Nb   7.72413382858   6.98497977583   15.3283309269
Nb   4.26056304680   6.98497977583   15.3283309269
Nb   18.1148461739   6.98497977583   15.3283309269
Nb   16.3830607832   9.98452006075   15.3283309269
Nb   12.9194900014   9.98452006075   15.3283309269
Nb   9.45591921964   9.98452006075   15.3283309269
Nb   5.99234843786   9.98452006075   15.3283309269
Nb   19.8466315650   9.98452006075   15.3283309269
Nb   18.1148461743   12.9840603457   15.3283309269
Nb   14.6512753925   12.9840603457   15.3283309269
Nb   11.1877046107   12.9840603457   15.3283309269
Nb   7.72413382892   12.9840603457   15.3283309269
Nb   21.5784169560   12.9840603457   15.3283309269
Nb   19.8466315653   15.9836006306   15.3283309269
Nb   16.3830607835   15.9836006306   15.3283309269
Nb   12.9194900017   15.9836006306   15.3283309269
Nb   9.45591921997   15.9836006306   15.3283309269
Nb   23.3102023471   15.9836006306   15.3283309269
Nb   11.1867217706  0.995655364772   9.18208868332
Nb   7.72315098881  0.995655364772   9.18208868332
Nb   4.25958020703  0.995655364772   9.18208868332
Nb  0.796009425246  0.995655364772   9.18208868332
Nb   14.6502925524  0.995655364772   9.18208868332
Nb   12.9185071616   3.99519564970   9.18208868332
Nb   9.45493637986   3.99519564970   9.18208868332
Nb   5.99136559808   3.99519564970   9.18208868332
Nb   2.52779481630   3.99519564970   9.18208868332
Nb   16.3820779434   3.99519564970   9.18208868332
Nb   14.6502925527   6.99473593462   9.18208868332
Nb   11.1867217709   6.99473593462   9.18208868332
Nb   7.72315098914   6.99473593462   9.18208868332
Nb   4.25958020736   6.99473593462   9.18208868332
Nb   18.1138633345   6.99473593462   9.18208868332
Nb   16.3820779438   9.99427621954   9.18208868332
Nb   12.9185071620   9.99427621954   9.18208868332
Nb   9.45493638020   9.99427621954   9.18208868332
Nb   5.99136559841   9.99427621954   9.18208868332
Nb   19.8456487255   9.99427621954   9.18208868332
Nb   18.1138633348   12.9938165045   9.18208868332
Nb   14.6502925530   12.9938165045   9.18208868332
Nb   11.1867217712   12.9938165045   9.18208868332
Nb   7.72315098947   12.9938165045   9.18208868332
Nb   21.5774341166   12.9938165045   9.18208868332
Nb   19.8456487259   15.9933567894   9.18208868332
Nb   16.3820779441   15.9933567894   9.18208868332
Nb   12.9185071623   15.9933567894   9.18208868332
Nb   9.45493638053   15.9933567894   9.18208868332
Nb   23.3092195077   15.9933567894   9.18208868332
Bi   9.77939378295   1.44238611518   35.3209507183
Bi   13.5578346359   3.07849899787   35.3209507183
Bi   17.3362754888   4.71461188056   35.3209507183
Bi   16.5491003109  0.624329673841   35.3209507183
Bi   3.00968725497   2.26044255653   35.3209507183
Bi   6.78812810791   3.89655543921   35.3209507183
Bi   10.5665689609   5.53266832190   35.3209507183
Bi   14.3450098138   7.16878120458   35.3209507183
Bi   18.1234506667   8.80489408727   35.3209507183
Bi   3.79686243287   6.35072476324   35.3209507183
Bi   7.57530328581   7.98683764593   35.3209507183
Bi   11.3537441388   9.62295052861   35.3209507183
Bi   15.1321849917   11.2590634113   35.3209507183
Bi   18.9106258446   12.8951762940   35.3209507183
Bi   4.58403761077   10.4410069699   35.3209507183
Bi   8.36247846372   12.0771198526   35.3209507183
Bi   12.1409193167   13.7132327353   35.3209507183
Bi   15.9193601696   15.3493456180   35.3209507183
Bi   19.6978010225   16.9854585007   35.3209507183
Bi   22.6890666976   14.5312891767   35.3209507183
Bi   9.14965364162   16.1674020594   35.3209507183
Bi   12.9280944946   17.8035149420   35.3209507183
Bi   7.54202527638   1.68760318189   31.3343077101
Bi   11.3204661293   3.32371606458   31.3343077101
Bi   15.0989069823   4.95982894726   31.3343077101
Bi   14.3117318044  0.869546740551   31.3343077101
Bi   18.0901726573   2.50565962324   31.3343077101
Bi   4.55075960134   4.14177250592   31.3343077101
Bi   8.32920045428   5.77788538861   31.3343077101
Bi   12.1076413072   7.41399827129   31.3343077101
Bi   15.8860821602   9.05011115398   31.3343077101
Bi   18.8773478352   6.59594182995   31.3343077101
Bi   5.33793477924   8.23205471264   31.3343077101
Bi   9.11637563219   9.86816759532   31.3343077101
Bi   12.8948164851   11.5042804780   31.3343077101
Bi   16.6732573381   13.1403933607   31.3343077101
Bi   19.6645230131   10.6862240367   31.3343077101
Bi   6.12510995715   12.3223369194   31.3343077101
Bi   9.90355081009   13.9584498020   31.3343077101
Bi   13.6819916630   15.5945626847   31.3343077101
Bi   17.4604325160   17.2306755674   31.3343077101
Bi   20.4516981910   14.7765062434   31.3343077101
Bi   6.91228513505   16.4126191261   31.3343077101
Bi   3.76358442344 0.0514902992079   31.3343077101
Bi   7.51334061760   1.62517418809   25.2928290677
Bi   11.2917814705   3.26128707077   25.2928290677
Bi   15.0702223235   4.89739995346   25.2928290677
Bi   14.2830471456  0.807117746744   25.2928290677
Bi   18.0614879985   2.44323062943   25.2928290677
Bi   4.52207494256   4.07934351212   25.2928290677
Bi   8.30051579550   5.71545639480   25.2928290677
Bi   12.0789566484   7.35156927749   25.2928290677
Bi   15.8573975014   8.98768216017   25.2928290677
Bi   18.8486631764   6.53351283614   25.2928290677
Bi   5.30925012046   8.16962571883   25.2928290677
Bi   9.08769097340   9.80573860151   25.2928290677
Bi   12.8661318263   11.4418514842   25.2928290677
Bi   16.6445726793   13.0779643669   25.2928290677
Bi   19.6358383543   10.6237950429   25.2928290677
Bi   6.09642529837   12.2599079255   25.2928290677
Bi   9.87486615131   13.8960208082   25.2928290677
Bi   13.6533070043   15.5321336909   25.2928290677
Bi   17.4317478572   17.1682465736   25.2928290677
Bi   20.4230135322   14.7140772496   25.2928290677
Bi   6.88360047627   16.3501901323   25.2928290677
Bi   10.6620413292   17.9863030149   25.2928290677
Bi   12.0462943071   1.07575359052   21.3211086462
Bi   15.8247351600   2.71186647321   21.3211086462
Bi   2.28532210405   4.34797935590   21.3211086462
Bi   1.49814692615  0.257697149181   21.3211086462
Bi   5.27658777909   1.89381003187   21.3211086462
Bi   9.05502863203   3.52992291455   21.3211086462
Bi   12.8334694850   5.16603579724   21.3211086462
Bi   16.6119103379   6.80214867992   21.3211086462
Bi   20.3903511909   8.43826156261   21.3211086462
Bi   6.06376295700   5.98409223858   21.3211086462
Bi   9.84220380994   7.62020512127   21.3211086462
Bi   13.6206446629   9.25631800395   21.3211086462
Bi   17.3990855158   10.8924308866   21.3211086462
Bi   21.1775263688   12.5285437693   21.3211086462
Bi   6.85093813490   10.0743744453   21.3211086462
Bi   10.6293789878   11.7104873280   21.3211086462
Bi   14.4078198408   13.3466002107   21.3211086462
Bi   18.1862606937   14.9827130934   21.3211086462
Bi   21.9647015467   16.6188259760   21.3211086462
Bi   7.63811331280   14.1646566520   21.3211086462
Bi   11.4165541658   15.8007695347   21.3211086462
Bi   15.1949950187   17.4368824174   21.3211086462
Se   19.8460884466   17.9934028983   7.50000000000
Se   16.3825176648   17.9934028983   7.50000000000
Se   12.9189468831   17.9934028983   7.50000000000
Se   9.45537610127   17.9934028983   7.50000000000
Se   23.3096592284   17.9934028983   7.50000000000
Se   14.6507322731   2.99570147368   7.50000000000
Se   11.1871614913   2.99570147368   7.50000000000
Se   7.72359070954   2.99570147368   7.50000000000
Se   4.26001992776   2.99570147368   7.50000000000
Se   18.1143030549   2.99570147368   7.50000000000
Se   16.3825176642   5.99524175860   7.50000000000
Se   12.9189468824   5.99524175860   7.50000000000
Se   9.45537610060   5.99524175860   7.50000000000
Se   5.99180531882   5.99524175860   7.50000000000
Se   2.52823453704   5.99524175860   7.50000000000
Se   18.1143030552   8.99478204352   7.50000000000
Se   14.6507322734   8.99478204352   7.50000000000
Se   11.1871614917   8.99478204352   7.50000000000
Se   7.72359070988   8.99478204352   7.50000000000
Se   4.26001992810   8.99478204352   7.50000000000
Se   19.8460884463   11.9943223285   7.50000000000
Se   16.3825176645   11.9943223285   7.50000000000
Se   12.9189468827   11.9943223285   7.50000000000
Se   9.45537610093   11.9943223285   7.50000000000
Se   5.99180531915   11.9943223285   7.50000000000
Se   21.5778738373   14.9938626134   7.50000000000
Se   18.1143030556   14.9938626134   7.50000000000
Se   14.6507322738   14.9938626134   7.50000000000
Se   11.1871614920   14.9938626134   7.50000000000
Se   7.72359071021   14.9938626134   7.50000000000
Se   18.1151115772   16.9835612236   13.6460282443
Se   14.6515407954   16.9835612236   13.6460282443
Se   11.1879700137   16.9835612236   13.6460282443
Se   7.72439923187   16.9835612236   13.6460282443
Se   21.5786823590   16.9835612236   13.6460282443
Se   12.9197554037   1.98585979897   13.6460282443
Se   9.45618462193   1.98585979897   13.6460282443
Se   5.99261384015   1.98585979897   13.6460282443
Se   2.52904305837   1.98585979897   13.6460282443
Se   16.3833261855   1.98585979897   13.6460282443
Se   14.6515407948   4.98540008390   13.6460282443
Se   11.1879700130   4.98540008390   13.6460282443
Se   7.72439923120   4.98540008390   13.6460282443
Se   4.26082844942   4.98540008390   13.6460282443
Se   18.1151115765   4.98540008390   13.6460282443
Se   16.3833261858   7.98494036882   13.6460282443
Se   12.9197554040   7.98494036882   13.6460282443
Se   9.45618462226   7.98494036882   13.6460282443
Se   5.99261384048   7.98494036882   13.6460282443
Se   19.8468969676   7.98494036882   13.6460282443
Se   18.1151115769   10.9844806537   13.6460282443
Se   14.6515407951   10.9844806537   13.6460282443
Se   11.1879700133   10.9844806537   13.6460282443
Se   7.72439923154   10.9844806537   13.6460282443
Se   4.26082844976   10.9844806537   13.6460282443
Se   19.8468969679   13.9840209387   13.6460282443
Se   16.3833261862   13.9840209387   13.6460282443
Se   12.9197554044   13.9840209387   13.6460282443
Se   9.45618462259   13.9840209387   13.6460282443
Se   5.99261384081   13.9840209387   13.6460282443
Se   19.8457810904   17.9923715276   10.8644375631
Se   16.3822103086   17.9923715276   10.8644375631
Se   12.9186395268   17.9923715276   10.8644375631
Se   9.45506874505   17.9923715276   10.8644375631
Se   23.3093518722   17.9923715276   10.8644375631
Se   14.6504249169   2.99467010295   10.8644375631
Se   11.1868541351   2.99467010295   10.8644375631
Se   7.72328335333   2.99467010295   10.8644375631
Se   4.25971257155   2.99467010295   10.8644375631
Se   18.1139956987   2.99467010295   10.8644375631
Se   16.3822103079   5.99421038788   10.8644375631
Se   12.9186395262   5.99421038788   10.8644375631
Se   9.45506874439   5.99421038788   10.8644375631
Se   5.99149796261   5.99421038788   10.8644375631
Se   2.52792718083   5.99421038788   10.8644375631
Se   18.1139956990   8.99375067280   10.8644375631
Se   14.6504249172   8.99375067280   10.8644375631
Se   11.1868541355   8.99375067280   10.8644375631
Se   7.72328335367   8.99375067280   10.8644375631
Se   4.25971257189   8.99375067280   10.8644375631
Se   19.8457810901   11.9932909577   10.8644375631
Se   16.3822103083   11.9932909577   10.8644375631
Se   12.9186395265   11.9932909577   10.8644375631
Se   9.45506874472   11.9932909577   10.8644375631
Se   5.99149796294   11.9932909577   10.8644375631
Se   21.5775664811   14.9928312427   10.8644375631
Se   18.1139956993   14.9928312427   10.8644375631
Se   14.6504249176   14.9928312427   10.8644375631
Se   11.1868541358   14.9928312427   10.8644375631
Se   7.72328335400   14.9928312427   10.8644375631
Se   18.1146420092   16.9826131793   17.0104680300
Se   14.6510712274   16.9826131793   17.0104680300
Se   11.1875004456   16.9826131793   17.0104680300
Se   7.72392966381   16.9826131793   17.0104680300
Se   21.5782127909   16.9826131793   17.0104680300
Se   12.9192858357   1.98491175471   17.0104680300
Se   9.45571505387   1.98491175471   17.0104680300
Se   5.99214427209   1.98491175471   17.0104680300
Se   2.52857349031   1.98491175471   17.0104680300
Se   16.3828566174   1.98491175471   17.0104680300
Se   14.6510712267   4.98445203963   17.0104680300
Se   11.1875004449   4.98445203963   17.0104680300
Se   7.72392966315   4.98445203963   17.0104680300
Se   4.26035888136   4.98445203963   17.0104680300
Se   18.1146420085   4.98445203963   17.0104680300
Se   16.3828566178   7.98399232455   17.0104680300
Se   12.9192858360   7.98399232455   17.0104680300
Se   9.45571505420   7.98399232455   17.0104680300
Se   5.99214427242   7.98399232455   17.0104680300
Se   19.8464273995   7.98399232455   17.0104680300
Se   18.1146420088   10.9835326095   17.0104680300
Se   14.6510712270   10.9835326095   17.0104680300
Se   11.1875004453   10.9835326095   17.0104680300
Se   7.72392966348   10.9835326095   17.0104680300
Se   4.26035888170   10.9835326095   17.0104680300
Se   19.8464273999   13.9830728944   17.0104680300
Se   16.3828566181   13.9830728944   17.0104680300
Se   12.9192858363   13.9830728944   17.0104680300
Se   9.45571505453   13.9830728944   17.0104680300
Se   5.99214427275   13.9830728944   17.0104680300
Se   7.51141225518   1.71596195371   36.9624158930
Se   11.2898531081   3.35207483640   36.9624158930
Se   15.0682939611   4.98818771908   36.9624158930
Se   14.2811187832  0.897905512367   36.9624158930
Se   18.0595596361   2.53401839505   36.9624158930
Se   4.52014658014   4.17013127774   36.9624158930
Se   8.29858743308   5.80624416042   36.9624158930
Se   12.0770282860   7.44235704311   36.9624158930
Se   15.8554691390   9.07846992579   36.9624158930
Se   18.8467348140   6.62430060177   36.9624158930
Se   5.30732175805   8.26041348445   36.9624158930
Se   9.08576261099   9.89652636714   36.9624158930
Se   12.8642034639   11.5326392498   36.9624158930
Se   16.6426443169   13.1687521325   36.9624158930
Se   19.6339099919   10.7145828085   36.9624158930
Se   6.09449693595   12.3506956912   36.9624158930
Se   9.87293778889   13.9868085739   36.9624158930
Se   13.6513786418   15.6229214565   36.9624158930
Se   17.4298194948   17.2590343392   36.9624158930
Se   20.4210851698   14.8048650152   36.9624158930
Se   6.88167211385   16.4409778979   36.9624158930
Se   3.73297140224 0.0798490710247   36.9624158930
Se   12.0580214811   1.16059135343   33.3248314276
Se   15.8364623340   2.79670423612   33.3248314276
Se   2.29704927806   4.43281711880   33.3248314276
Se   1.50987410016  0.342534912087   33.3248314276
Se   5.28831495310   1.97864779477   33.3248314276
Se   9.06675580604   3.61476067746   33.3248314276
Se   12.8451966590   5.25087356014   33.3248314276
Se   16.6236375119   6.88698644283   33.3248314276
Se   20.4020783649   8.52309932551   33.3248314276
Se   6.07549013100   6.06893000149   33.3248314276
Se   9.85393098395   7.70504288417   33.3248314276
Se   13.6323718369   9.34115576686   33.3248314276
Se   17.4108126898   10.9772686495   33.3248314276
Se   21.1892535428   12.6133815322   33.3248314276
Se   6.86266530891   10.1592122082   33.3248314276
Se   10.6411061619   11.7953250909   33.3248314276
Se   14.4195470148   13.4314379736   33.3248314276
Se   18.1979878677   15.0675508563   33.3248314276
Se   21.9764287207   16.7036637389   33.3248314276
Se   7.64984048681   14.2494944149   33.3248314276
Se   11.4282813398   15.8856072976   33.3248314276
Se   15.2067221927   17.5217201803   33.3248314276
Se   9.79083439783   1.42569311589   29.6913123135
Se   13.5692752508   3.06180599857   29.6913123135
Se   17.3477161037   4.69791888126   29.6913123135
Se   16.5605409258  0.607636674545   29.6913123135
Se   3.02112786985   2.24374955723   29.6913123135
Se   6.79956872279   3.87986243992   29.6913123135
Se   10.5780095757   5.51597532260   29.6913123135
Se   14.3564504287   7.15208820529   29.6913123135
Se   18.1348912816   8.78820108797   29.6913123135
Se   3.80830304776   6.33403176394   29.6913123135
Se   7.58674390070   7.97014464663   29.6913123135
Se   11.3651847536   9.60625752932   29.6913123135
Se   15.1436256066   11.2423704120   29.6913123135
Se   18.9220664595   12.8784832947   29.6913123135
Se   4.59547822566   10.4243139707   29.6913123135
Se   8.37391907860   12.0604268533   29.6913123135
Se   12.1523599315   13.6965397360   29.6913123135
Se   15.9308007845   15.3326526187   29.6913123135
Se   19.7092416374   16.9687655014   29.6913123135
Se   22.7005073125   14.5145961774   29.6913123135
Se   9.16109425651   16.1507090601   29.6913123135
Se   12.9395351094   17.7868219427   29.6913123135
Se   12.0482142890   1.07950412749   26.9245759022
Se   15.8266551419   2.71561701018   26.9245759022
Se   2.28724208594   4.35172989286   26.9245759022
Se   1.50006690803  0.261447686147   26.9245759022
Se   5.27850776098   1.89756056883   26.9245759022
Se   9.05694861392   3.53367345152   26.9245759022
Se   12.8353894669   5.16978633420   26.9245759022
Se   16.6138303198   6.80589921689   26.9245759022
Se   20.3922711727   8.44201209957   26.9245759022
Se   6.06568293888   5.98784277555   26.9245759022
Se   9.84412379182   7.62395565823   26.9245759022
Se   13.6225646448   9.26006854092   26.9245759022
Se   17.4010054977   10.8961814236   26.9245759022
Se   21.1794463507   12.5322943063   26.9245759022
Se   6.85285811678   10.0781249823   26.9245759022
Se   10.6312989697   11.7142378649   26.9245759022
Se   14.4097398227   13.3503507476   26.9245759022
Se   18.1881806756   14.9864636303   26.9245759022
Se   21.9666215286   16.6225765130   26.9245759022
Se   7.64003329469   14.1684071890   26.9245759022
Se   11.4184741476   15.8045200717   26.9245759022
Se   15.1969150006   17.4406329543   26.9245759022
Se   9.77337854720   1.34570647065   23.3067135554
Se   13.5518194001   2.98181935334   23.3067135554
Se   17.3302602531   4.61793223602   23.3067135554
Se   16.5430850752  0.527650029310   23.3067135554
Se   3.00367201922   2.16376291200   23.3067135554
Se   6.78211287216   3.79987579468   23.3067135554
Se   10.5605537251   5.43598867737   23.3067135554
Se   14.3389945780   7.07210156005   23.3067135554
Se   18.1174354310   8.70821444274   23.3067135554
Se   3.79084719712   6.25404511871   23.3067135554
Se   7.56928805007   7.89015800139   23.3067135554
Se   11.3477289030   9.52627088408   23.3067135554
Se   15.1261697560   11.1623837668   23.3067135554
Se   18.9046106089   12.7984966495   23.3067135554
Se   4.57802237503   10.3443273254   23.3067135554
Se   8.35646322797   11.9804402081   23.3067135554
Se   12.1349040809   13.6165530908   23.3067135554
Se   15.9133449339   15.2526659735   23.3067135554
Se   19.6917857868   16.8887788562   23.3067135554
Se   22.6830514618   14.4346095321   23.3067135554
Se   9.14363840587   16.0707224148   23.3067135554
Se   12.9220792588   17.7068352975   23.3067135554
Se   7.50603401111   1.62551877174   19.6835785923
Se   11.2844748641   3.26163165442   19.6835785923
Se   15.0629157170   4.89774453711   19.6835785923
Se   14.2757405391  0.807462330395   19.6835785923
Se   18.0541813920   2.44357521308   19.6835785923
Se   4.51476833608   4.07968809577   19.6835785923
Se   8.29320918902   5.71580097845   19.6835785923
Se   12.0716500420   7.35191386114   19.6835785923
Se   15.8500908949   8.98802674382   19.6835785923
Se   18.8413565699   6.53385741979   19.6835785923
Se   5.30194351398   8.16997030248   19.6835785923
Se   9.08038436692   9.80608318517   19.6835785923
Se   12.8588252199   11.4421960679   19.6835785923
Se   16.6372660728   13.0783089505   19.6835785923
Se   19.6285317478   10.6241396265   19.6835785923
Se   6.08911869188   12.2602525092   19.6835785923
Se   9.86755954482   13.8963653919   19.6835785923
Se   13.6460003978   15.5324782746   19.6835785923
Se   17.4244412507   17.1685911573   19.6835785923
Se   20.4157069258   14.7144218332   19.6835785923
Se   6.87629386979   16.3505347159   19.6835785923
Se   10.6547347227   17.9866475986   19.6835785923
