304
Lattice="   15.0973550    0.00000000  9.00000000e-16    7.15137869    16.5154017  1.10000000e-15    0.00000000    0.00000000    44.4624159"
Nb   5.73717557160   8.68698776019   15.3283309269
Nb   8.51826728603   10.7514129674   15.3283309269
Nb   11.2993590005   12.8158381747   15.3283309269
Nb   3.35338267357   3.18185387418   15.3283309269
Nb   6.13447438800   5.24627908144   15.3283309269
Nb   8.91556610243   7.31070428869   15.3283309269
Nb   11.6966578169   9.37512949594   15.3283309269
Nb   14.4777495313   11.4395547032   15.3283309269
Nb   17.2588412457   13.5039799104   15.3283309269
Nb   8.12096846963   14.1921216462   15.3283309269
Nb   10.9020601841   16.2565468534   15.3283309269
Nb   6.53177320440   1.80557040268   15.3283309269
Nb   9.31286491883   3.86999560994   15.3283309269
Nb   12.0939566333   5.93442081719   15.3283309269
Nb   14.8750483477   7.99884602444   15.3283309269
Nb   17.6561400621   10.0632712317   15.3283309269
Nb   5.33987675520   12.1276964389   15.3283309269
Nb   14.0804507149   14.8802633819   15.3283309269
Nb   9.71016373523  0.429286931183   15.3283309269
Nb   12.4912554497   2.49371213843   15.3283309269
Nb   15.2723471641   4.55813734569   15.3283309269
Nb   2.95608385717   6.62256255294   15.3283309269
Nb   20.0399329602   15.5684051177   15.3283309269
Nb  0.572290959140   1.11742866693   15.3283309269
Nb   5.74377980411   8.67973981423   9.18208868332
Nb   8.52487151854   10.7441650215   9.18208868332
Nb   11.3059632330   12.8085902287   9.18208868332
Nb   3.35998690608   3.17460592822   9.18208868332
Nb   6.14107862051   5.23903113548   9.18208868332
Nb   8.92217033494   7.30345634273   9.18208868332
Nb   11.7032620494   9.36788154998   9.18208868332
Nb   14.4843537638   11.4323067572   9.18208868332
Nb   17.2654454782   13.4967319645   9.18208868332
Nb   8.12757270214   14.1848737002   9.18208868332
Nb   10.9086644166   16.2492989075   9.18208868332
Nb   6.53837743691   1.79832245672   9.18208868332
Nb   9.31946915134   3.86274766397   9.18208868332
Nb   12.1005608658   5.92717287123   9.18208868332
Nb   14.8816525802   7.99159807848   9.18208868332
Nb   17.6627442946   10.0560232857   9.18208868332
Nb   5.34648098771   12.1204484930   9.18208868332
Nb   14.0870549474   14.8730154360   9.18208868332
Nb   9.71676796774  0.422038985222   9.18208868332
Nb   12.4978596822   2.48646419247   9.18208868332
Nb   15.2789513966   4.55088939972   9.18208868332
Nb   2.96268808968   6.61531460698   9.18208868332
Nb   20.0465371927   15.5611571717   9.18208868332
Nb  0.578895191652   1.11018072097   9.18208868332
Bi   15.4627468732   9.72311107058   35.3209507183
Bi   15.3634221691   13.8519614851   35.3209507183
Bi   11.8373951741   3.52983544883   35.3209507183
Bi   11.7380704700   7.65868586333   35.3209507183
Bi   11.6387457658   11.7875362778   35.3209507183
Bi   8.11271877086   1.46541024158   35.3209507183
Bi   8.01339406671   5.59426065608   35.3209507183
Bi   7.91406936256   9.72311107058   35.3209507183
Bi   7.81474465842   13.8519614851   35.3209507183
Bi   11.5394210617   15.9163866923   35.3209507183
Bi   4.28871766345   3.52983544883   35.3209507183
Bi   4.18939295930   7.65868586333   35.3209507183
Bi   19.1874232765   11.7875362778   35.3209507183
Bi   15.6613962815   1.46541024158   35.3209507183
Bi   15.5620715774   5.59426065608   35.3209507183
Bi   19.0880985724   15.9163866923   35.3209507183
Bi   14.2900882166   7.66817415834   31.3343077101
Bi   14.1907635124   11.7970245728   31.3343077101
Bi   10.6647365174   1.47489853659   31.3343077101
Bi   10.5654118133   5.60374895109   31.3343077101
Bi   10.4660871092   9.73259936559   31.3343077101
Bi   14.0914388083   15.9258749874   31.3343077101
Bi   6.84073541003   3.53932374384   31.3343077101
Bi   6.74141070588   7.66817415834   31.3343077101
Bi   6.64208600174   11.7970245728   31.3343077101
Bi   10.3667624050   13.8614497801   31.3343077101
Bi   3.11605900677   1.47489853659   31.3343077101
Bi   3.01673430262   5.60374895109   31.3343077101
Bi   18.0147646198   9.73259936559   31.3343077101
Bi   21.6401163189   15.9258749874   31.3343077101
Bi   14.3894129207   3.53932374384   31.3343077101
Bi   17.9154399157   13.8614497801   31.3343077101
Bi   14.3415690976   7.62076758127   25.2928290677
Bi   14.2422443935   11.7496179958   25.2928290677
Bi   10.7162173985   1.42749195952   25.2928290677
Bi   10.6168926944   5.55634237402   25.2928290677
Bi   10.5175679902   9.68519278852   25.2928290677
Bi   14.1429196893   15.8784684103   25.2928290677
Bi   6.89221629111   3.49191716677   25.2928290677
Bi   6.79289158696   7.62076758127   25.2928290677
Bi   6.69356688281   11.7496179958   25.2928290677
Bi   10.4182432861   13.8140432030   25.2928290677
Bi   3.16753988784   1.42749195952   25.2928290677
Bi   3.06821518369   5.55634237402   25.2928290677
Bi   18.0662455009   9.68519278852   25.2928290677
Bi   21.6915972000   15.8784684103   25.2928290677
Bi   14.4408938018   3.49191716677   25.2928290677
Bi   17.9669207968   13.8140432030   25.2928290677
Bi   16.7707610501   11.7672151211   21.3211086462
Bi   16.6714363460   15.8960655356   21.3211086462
Bi   13.1454093510   5.57393949937   21.3211086462
Bi   13.0460846469   9.70278991387   21.3211086462
Bi   12.9467599427   13.8316403284   21.3211086462
Bi   9.42073294776   3.50951429211   21.3211086462
Bi   9.32140824361   7.63836470662   21.3211086462
Bi   9.22208353946   11.7672151211   21.3211086462
Bi   9.12275883532   15.8960655356   21.3211086462
Bi   5.69605654449   1.44508908486   21.3211086462
Bi   5.59673184035   5.57393949937   21.3211086462
Bi   5.49740713620   9.70278991387   21.3211086462
Bi   20.4954374534   13.8316403284   21.3211086462
Bi   1.87205543708   3.50951429211   21.3211086462
Bi   16.8700857543   7.63836470662   21.3211086462
Bi   13.2447340552   1.44508908486   21.3211086462
Se   3.75714280143   8.44981403434   7.50000000000
Se   6.53823451586   10.5142392416   7.50000000000
Se   9.31932623029   12.5786644488   7.50000000000
Se   1.37334990340   2.94468014834   7.50000000000
Se   4.15444161783   5.00910535559   7.50000000000
Se   6.93553333226   7.07353056284   7.50000000000
Se   9.71662504669   9.13795577009   7.50000000000
Se   12.4977167611   11.2023809773   7.50000000000
Se   15.2788084756   13.2668061846   7.50000000000
Se   6.14093569946   13.9549479203   7.50000000000
Se   8.92202741389   16.0193731276   7.50000000000
Se   4.55174043423   1.56839667684   7.50000000000
Se   7.33283214866   3.63282188409   7.50000000000
Se   10.1139238631   5.69724709134   7.50000000000
Se   12.8950155775   7.76167229859   7.50000000000
Se   15.6761072920   9.82609750584   7.50000000000
Se   18.4571990064   11.8905227131   7.50000000000
Se   12.1004179447   14.6430896561   7.50000000000
Se   7.73013096506  0.192113205336   7.50000000000
Se   10.5112226795   2.25653841259   7.50000000000
Se   13.2923143939   4.32096361984   7.50000000000
Se   16.0734061084   6.38538882709   7.50000000000
Se   18.0599001900   15.3312313919   7.50000000000
Se   13.6896132103  0.880254941087   7.50000000000
Se   4.54513386404   10.2924022183   13.6460282443
Se   7.32622557847   12.3568274255   13.6460282443
Se   10.1073172929   14.4212526328   13.6460282443
Se   2.16134096601   4.78726833228   13.6460282443
Se   4.94243268044   6.85169353953   13.6460282443
Se   7.72352439487   8.91611874678   13.6460282443
Se   10.5046161093   10.9805439540   13.6460282443
Se   13.2857078237   13.0449691613   13.6460282443
Se   16.0667995382   15.1093943685   13.6460282443
Se   6.92892676207   15.7975361043   13.6460282443
Se   2.55863978241   1.34655965353   13.6460282443
Se   5.33973149684   3.41098486078   13.6460282443
Se   8.12082321127   5.47541006803   13.6460282443
Se   10.9019149257   7.53983527528   13.6460282443
Se   13.6830066401   9.60426048253   13.6460282443
Se   16.4640983546   11.6686856898   13.6460282443
Se   19.2451900690   13.7331108970   13.6460282443
Se   12.8884090073   16.4856778400   13.6460282443
Se   8.51812202767   2.03470138928   13.6460282443
Se   11.2992137421   4.09912659653   13.6460282443
Se   14.0803054565   6.16355180378   13.6460282443
Se   16.8613971710   8.22797701103   13.6460282443
Se   11.6965125585  0.658417917778   13.6460282443
Se   14.4776042729   2.72284312503   13.6460282443
Se   3.75677485691   8.45082537515   10.8644375631
Se   6.53786657134   10.5152505824   10.8644375631
Se   9.31895828576   12.5796757897   10.8644375631
Se   1.37298195888   2.94569148915   10.8644375631
Se   4.15407367331   5.01011669640   10.8644375631
Se   6.93516538774   7.07454190365   10.8644375631
Se   9.71625710217   9.13896711090   10.8644375631
Se   12.4973488166   11.2033923182   10.8644375631
Se   15.2784405310   13.2678175254   10.8644375631
Se   6.14056775493   13.9559592612   10.8644375631
Se   8.92165946936   16.0203844684   10.8644375631
Se   4.55137248971   1.56940801765   10.8644375631
Se   7.33246420414   3.63383322490   10.8644375631
Se   10.1135559186   5.69825843215   10.8644375631
Se   12.8946476330   7.76268363940   10.8644375631
Se   15.6757393474   9.82710884665   10.8644375631
Se   18.4568310619   11.8915340539   10.8644375631
Se   12.1000500002   14.6441009969   10.8644375631
Se   7.72976302054  0.193124546146   10.8644375631
Se   10.5108547350   2.25754975340   10.8644375631
Se   13.2919464494   4.32197496065   10.8644375631
Se   16.0730381638   6.38640016790   10.8644375631
Se   18.0595322455   15.3322427327   10.8644375631
Se   13.6892452658  0.881266281897   10.8644375631
Se   4.54494583421   10.2934433364   17.0104680300
Se   7.32603754863   12.3578685436   17.0104680300
Se   10.1071292631   14.4222937509   17.0104680300
Se   2.16115293618   4.78830945037   17.0104680300
Se   4.94224465061   6.85273465762   17.0104680300
Se   7.72333636504   8.91715986487   17.0104680300
Se   10.5044280795   10.9815850721   17.0104680300
Se   13.2855197939   13.0460102794   17.0104680300
Se   16.0666115083   15.1104354866   17.0104680300
Se   6.92873873223   15.7985772224   17.0104680300
Se   2.55845175258   1.34760077162   17.0104680300
Se   5.33954346701   3.41202597887   17.0104680300
Se   8.12063518144   5.47645118612   17.0104680300
Se   10.9017268959   7.54087639337   17.0104680300
Se   13.6828186103   9.60530160062   17.0104680300
Se   16.4639103247   11.6697268079   17.0104680300
Se   19.2450020392   13.7341520151   17.0104680300
Se   12.8882209775   16.4867189581   17.0104680300
Se   8.51793399784   2.03574250737   17.0104680300
Se   11.2990257123   4.10016771462   17.0104680300
Se   14.0801174267   6.16459292187   17.0104680300
Se   16.8612091411   8.22901812912   17.0104680300
Se   11.6963245287  0.659459035865   17.0104680300
Se   14.4774162431   2.72388424312   17.0104680300
Se   14.2486803043   7.64808797144   36.9624158930
Se   14.1493556001   11.7769383859   36.9624158930
Se   10.6233286052   1.45481234968   36.9624158930
Se   10.5240039010   5.58366276419   36.9624158930
Se   10.4246791969   9.71251317869   36.9624158930
Se   14.0500308960   15.9057888004   36.9624158930
Se   6.79932749775   3.51923755693   36.9624158930
Se   6.70000279360   7.64808797144   36.9624158930
Se   6.60067808945   11.7769383859   36.9624158930
Se   10.3253544927   13.8413635932   36.9624158930
Se   3.07465109448   1.45481234968   36.9624158930
Se   2.97532639034   5.58366276419   36.9624158930
Se   17.9733567075   9.71251317869   36.9624158930
Se   21.5987084067   15.9057888004   36.9624158930
Se   14.3480050084   3.51923755693   36.9624158930
Se   17.8740320034   13.8413635932   36.9624158930
Se   16.6895467980   11.8056472612   33.3248314276
Se   16.5902220939   15.9344976757   33.3248314276
Se   13.0641950989   5.61237163949   33.3248314276
Se   12.9648703947   9.74122205399   33.3248314276
Se   12.8655456906   13.8700724685   33.3248314276
Se   9.33951869563   3.54794643223   33.3248314276
Se   9.24019399148   7.67679684674   33.3248314276
Se   9.14086928733   11.8056472612   33.3248314276
Se   9.04154458318   15.9344976757   33.3248314276
Se   5.61484229236   1.48352122498   33.3248314276
Se   5.51551758821   5.61237163949   33.3248314276
Se   5.41619288407   9.74122205399   33.3248314276
Se   20.4142232013   13.8700724685   33.3248314276
Se   1.79084118495   3.54794643223   33.3248314276
Se   16.7888715021   7.67679684674   33.3248314276
Se   13.1635198030   1.48352122498   33.3248314276
Se   15.4844041508   9.72866007374   29.6913123135
Se   15.3850794467   13.8575104882   29.6913123135
Se   11.8590524517   3.53538445199   29.6913123135
Se   11.7597277476   7.66423486649   29.6913123135
Se   11.6604030434   11.7930852810   29.6913123135
Se   8.13437604846   1.47095924473   29.6913123135
Se   8.03505134431   5.59980965924   29.6913123135
Se   7.93572664016   9.72866007374   29.6913123135
Se   7.83640193602   13.8575104882   29.6913123135
Se   11.5610783393   15.9219356955   29.6913123135
Se   4.31037494105   3.53538445199   29.6913123135
Se   4.21105023690   7.66423486649   29.6913123135
Se   19.2090805541   11.7930852810   29.6913123135
Se   15.6830535591   1.47095924473   29.6913123135
Se   15.5837288550   5.59980965924   29.6913123135
Se   19.1097558500   15.9219356955   29.6913123135
Se   16.7677494674   11.7702507424   26.9245759022
Se   16.6684247632   15.8991011569   26.9245759022
Se   13.1423977683   5.57697512069   26.9245759022
Se   13.0430730641   9.70582553519   26.9245759022
Se   12.9437483600   13.8346759497   26.9245759022
Se   9.41772136501   3.51254991344   26.9245759022
Se   9.31839666086   7.64140032794   26.9245759022
Se   9.21907195671   11.7702507424   26.9245759022
Se   9.11974725257   15.8991011569   26.9245759022
Se   5.69304496175   1.44812470618   26.9245759022
Se   5.59372025760   5.57697512069   26.9245759022
Se   5.49439555345   9.70582553519   26.9245759022
Se   20.4924258707   13.8346759497   26.9245759022
Se   1.86904385433   3.51254991344   26.9245759022
Se   16.8670741715   7.64140032794   26.9245759022
Se   13.2417224724   1.44812470618   26.9245759022
Se   15.5583319224   9.68632279679   23.3067135554
Se   15.4590072182   13.8151732113   23.3067135554
Se   11.9329802232   3.49304717504   23.3067135554
Se   11.8336555191   7.62189758954   23.3067135554
Se   11.7343308149   11.7507480040   23.3067135554
Se   8.20830381997   1.42862196779   23.3067135554
Se   8.10897911582   5.55747238229   23.3067135554
Se   8.00965441168   9.68632279679   23.3067135554
Se   7.91032970753   13.8151732113   23.3067135554
Se   11.6350061108   15.8795984185   23.3067135554
Se   4.38430271256   3.49304717504   23.3067135554
Se   4.28497800841   7.62189758954   23.3067135554
Se   19.2830083256   11.7507480040   23.3067135554
Se  0.659626309297   1.42862196779   23.3067135554
Se   15.6576566265   5.55747238229   23.3067135554
Se   19.1836836215   15.8795984185   23.3067135554
Se   14.3382023111   7.61391021292   19.6835785923
Se   14.2388776069   11.7427606274   19.6835785923
Se   10.7128506120   1.42063459117   19.6835785923
Se   10.6135259078   5.54948500567   19.6835785923
Se   10.5142012037   9.67833542017   19.6835785923
Se   14.1395529028   15.8716110419   19.6835785923
Se   6.88884950455   3.48505979842   19.6835785923
Se   6.78952480041   7.61391021292   19.6835785923
Se   6.69020009626   11.7427606274   19.6835785923
Se   10.4148764995   13.8071858347   19.6835785923
Se   3.16417310129   1.42063459117   19.6835785923
Se   3.06484839714   5.54948500567   19.6835785923
Se   18.0628787143   9.67833542017   19.6835785923
Se   21.6882304135   15.8716110419   19.6835785923
Se   14.4375270152   3.48505979842   19.6835785923
Se   17.9635540102   13.8071858347   19.6835785923
